<?xml version="1.0" encoding="UTF-8"?>

<!-- generated on Sun Oct 23 09:39:06 2022 by Eclipse SUMO jtrrouter Version 1.8.0
<configuration xmlns:xsi="http://www.w3.org/2001/XMLSchema-instance" xsi:noNamespaceSchemaLocation="http://sumo.dlr.de/xsd/jtrrouterConfiguration.xsd">

    <input>
        <net-file value="grid.net.xml"/>
        <route-files value="flows.xml"/>
    </input>

    <output>
        <output-file value="grid.rou.xml"/>
    </output>

    <processing>
        <no-internal-links value="true"/>
        <accept-all-destinations value="true"/>
        <allow-loops value="true"/>
    </processing>

    <time>
        <begin value="0"/>
        <end value="10000"/>
    </time>

</configuration>
-->

<routes xmlns:xsi="http://www.w3.org/2001/XMLSchema-instance" xsi:noNamespaceSchemaLocation="http://sumo.dlr.de/xsd/routes_file.xsd">
    <vehicle id="0.0" depart="0.00" departPos="random" departSpeed="max">
        <route edges="D0E0 E0E1 E1D1 D1D2 D2D3 D3C3 C3C4 C4B4 B4A4 A4A3 A3B3 B3B2 B2C2 C2D2 D2E2 E2E3 E3E4 E4D4 D4E4 E4E3 E3E2 E2D2 D2C2 C2B2 B2B1 B1B2 B2A2 A2B2 B2C2 C2D2 D2E2 E2E1 E1E0 E0D0 D0D1 D1D0 D0C0 C0B0 B0A0 A0A1 A1B1 B1C1 C1B1 B1A1 A1A2 A2B2 B2B3 B3B4 B4B3 B3A3 A3A2 A2B2 B2B3 B3A3 A3B3 B3A3 A3A2 A2B2 B2B3 B3C3 C3B3 B3B4 B4A4 A4A3 A3A2 A2A1 A1B1 B1A1 A1A2 A2B2 B2A2 A2A1 A1B1 B1B0 B0C0 C0D0 D0E0 E0E1 E1E2 E2D2 D2C2 C2B2 B2B3 B3A3 A3A2 A2B2 B2C2 C2D2 D2D3 D3C3 C3B3 B3A3 A3B3 B3B2 B2B1 B1A1 A1B1 B1B2 B2B1 B1B0 B0C0 C0C1 C1C2 C2C1 C1D1 D1C1 C1B1 B1A1 A1A0 A0B0 B0C0 C0C1 C1B1 B1B0 B0A0 A0A1 A1B1 B1B2 B2C2 C2B2 B2A2 A2A1 A1A0 A0B0 B0B1 B1B0 B0B1 B1C1 C1B1 B1A1 A1A0 A0B0 B0B1 B1B2 B2B3 B3A3 A3A2 A2B2 B2B1 B1B2 B2A2 A2B2 B2A2 A2A1 A1A0 A0B0 B0A0 A0A1 A1A0 A0B0 B0B1 B1A1 A1A0 A0B0 B0C0 C0C1 C1C0 C0B0 B0A0 A0A1 A1A2 A2B2 B2A2 A2B2 B2C2 C2B2 B2A2 A2B2 B2B3 B3B4 B4B3 B3B2 B2A2 A2A3 A3A4 A4B4 B4C4 C4D4 D4E4 E4E3 E3D3 D3D2 D2C2 C2C1 C1B1 B1B2 B2B3 B3B4 B4C4 C4B4 B4B3 B3B2 B2B3 B3B4 B4C4 C4C3 C3C4 C4D4 D4C4 C4C3 C3D3 D3E3 E3E2 E2E1 E1D1 D1D0 D0E0 E0E1 E1E2 E2D2 D2D3 D3C3 C3C4 C4B4 B4B3 B3C3 C3C4 C4D4 D4C4 C4C3 C3B3 B3A3 A3A4 A4B4 B4B3 B3B2 B2B3 B3B2 B2A2 A2B2 B2C2 C2C1 C1C0 C0B0 B0A0 A0A1 A1A2 A2A1 A1B1 B1A1 A1A0 A0B0 B0C0 C0C1 C1D1 D1D0 D0C0 C0D0 D0E0 E0E1 E1E2 E2E3 E3D3 D3C3 C3C2 C2C1 C1C0 C0D0 D0D1 D1D2 D2D3 D3D4 D4D3 D3D2 D2C2 C2C3 C3C4 C4B4 B4A4 A4A3 A3A4 A4B4 B4B3 B3B4 B4A4 A4A3 A3B3 B3A3 A3A2 A2B2 B2B3 B3C3 C3C4 C4B4 B4B3 B3A3 A3A2 A2A3 A3A4 A4B4 B4B3 B3B4 B4A4 A4A3 A3B3 B3A3 A3B3 B3B4 B4A4 A4A3 A3A4 A4B4 B4C4 C4D4 D4D3 D3D2 D2D3 D3D2 D2D1 D1C1 C1D1 D1E1 E1E0 E0D0 D0E0 E0E1 E1E2 E2E3 E3E4 E4D4 D4D3 D3E3 E3E4 E4D4 D4C4 C4C3 C3C4 C4B4 B4A4 A4A3 A3B3 B3B4 B4C4 C4C3 C3C2 C2B2 B2B3 B3C3 C3C2 C2D2 D2E2 E2D2 D2E2 E2E1 E1E2 E2D2 D2D3 D3D4 D4C4 C4D4 D4D3 D3D2 D2D1 D1D0 D0D1 D1D0 D0E0 E0E1 E1E0 E0D0 D0C0 C0B0 B0B1 B1B2 B2B1 B1C1 C1D1 D1D2 D2E2 E2E3 E3E4 E4D4 D4D3 D3E3 E3E2 E2D2 D2D3 D3D2 D2D3 D3C3 C3C2 C2D2 D2E2 E2E1 E1E0 E0D0 D0C0 C0B0 B0A0 A0A1 A1A2 A2B2 B2C2 C2C3 C3C2 C2B2 B2A2 A2A3 A3A2 A2A3 A3B3 B3B4 B4C4 C4C3 C3C2 C2D2 D2D1 D1D2 D2D3 D3E3 E3E2 E2E3 E3E2 E2E3 E3D3 D3D2 D2D1 D1D2 D2D1 D1E1 E1E2 E2E1 E1E0 E0D0 D0D1 D1E1 E1E0 E0D0 D0C0 C0D0 D0E0 E0E1 E1D1 D1D0 D0E0 E0E1 E1E2 E2E1 E1E0 E0D0 D0C0 C0D0 D0C0 C0B0 B0A0 A0A1 A1B1 B1B0 B0B1 B1B2 B2A2 A2A1 A1A2 A2B2 B2B1 B1C1 C1C2 C2C3 C3B3 B3B4 B4A4 A4A3 A3B3 B3B2 B2C2 C2B2 B2B3 B3C3 C3C4 C4C3 C3C4 C4C3 C3D3 D3C3 C3C4 C4B4 B4C4 C4B4 B4C4 C4D4 D4E4 E4E3 E3D3 D3D2 D2C2 C2D2 D2D1 D1E1 E1E2 E2E1 E1D1 D1C1 C1B1 B1B0 B0B1 B1C1 C1C0 C0B0 B0B1 B1A1 A1A0 A0B0 B0B1 B1B2 B2A2 A2A3 A3A4 A4B4 B4B3 B3A3 A3A2 A2A1 A1B1 B1C1 C1C2 C2C3 C3D3 D3E3 E3E4 E4D4 D4C4 C4C3 C3D3 D3D2 D2C2 C2D2 D2D1 D1E1 E1E0 E0D0 D0E0 E0E1 E1D1 D1C1 C1C0 C0B0 B0A0 A0A1 A1A2 A2A1 A1A0 A0B0 B0B1 B1B2 B2C2 C2D2 D2D3 D3C3 C3C4 C4B4 B4B3 B3B4 B4A4 A4A3 A3A4 A4B4 B4C4 C4D4 D4E4 E4E3 E3E2 E2E1 E1D1 D1D0 D0D1 D1C1 C1B1 B1C1 C1D1 D1D0 D0E0 E0E1 E1E0 E0D0 D0D1 D1D2 D2D3 D3C3 C3B3 B3A3 A3A4 A4B4 B4A4 A4A3 A3B3 B3A3 A3B3 B3A3 A3A2 A2B2 B2C2 C2B2 B2A2 A2B2 B2B1 B1B2 B2C2 C2C1 C1B1 B1C1 C1C0 C0B0 B0A0 A0A1 A1B1 B1B2 B2B3 B3B4 B4A4 A4A3 A3A4 A4B4 B4B3 B3C3 C3C2 C2C1 C1C2 C2B2 B2A2 A2B2 B2B3 B3A3 A3A2 A2B2 B2A2 A2B2 B2B1 B1C1 C1D1 D1D0 D0D1 D1C1 C1C0 C0C1 C1C0 C0B0 B0A0 A0A1 A1B1 B1A1 A1A0 A0B0 B0B1 B1A1 A1A0 A0B0 B0C0 C0B0 B0A0 A0A1 A1A0 A0B0 B0C0 C0D0 D0E0 E0E1 E1E2 E2E1 E1E0 E0D0 D0E0 E0E1 E1E0 E0D0 D0E0 E0E1 E1E0 E0D0 D0D1 D1C1 C1B1 B1B0 B0C0 C0D0 D0D1 D1E1 E1E2 E2D2 D2C2 C2C3 C3B3 B3B4 B4A4 A4A3 A3B3 B3B2 B2C2 C2B2 B2C2 C2C3 C3C4 C4B4 B4A4 A4A3 A3B3 B3C3 C3D3 D3D4 D4C4 C4C3 C3C2 C2C3 C3D3 D3D2 D2E2 E2E3 E3D3 D3D2 D2D1 D1C1 C1C0 C0D0 D0C0 C0C1 C1C2 C2C3 C3B3 B3B2 B2B1 B1B2 B2C2 C2D2 D2D3 D3E3 E3E4 E4D4 D4C4 C4B4 B4C4 C4B4 B4B3 B3B2 B2A2 A2A3 A3A4 A4B4 B4B3 B3C3 C3C2 C2C3 C3B3 B3A3 A3A2 A2B2 B2C2 C2D2 D2D1 D1D0 D0C0 C0C1 C1C0 C0C1 C1B1 B1B2 B2A2 A2B2 B2A2 A2A1 A1B1 B1C1 C1D1 D1E1 E1D1 D1D2 D2C2 C2C3 C3C4 C4B4 B4B3 B3B4 B4C4 C4D4 D4E4 E4E3 E3E2 E2E1 E1E2 E2D2 D2C2 C2C1 C1D1 D1D2 D2E2 E2E1 E1D1 D1D0 D0E0 E0E1 E1E0 E0D0 D0D1 D1E1 E1E0 E0D0 D0C0 C0B0 B0A0 A0A1 A1A2 A2B2 B2B1 B1B0 B0C0 C0D0 D0D1 D1C1 C1D1 D1E1 E1E0 E0D0 D0C0 C0B0 B0A0 A0A1 A1A0 A0B0 B0C0 C0B0 B0B1 B1A1 A1A0 A0B0 B0C0 C0D0 D0D1 D1C1 C1C0 C0C1 C1C2 C2C1 C1B1 B1B0 B0C0 C0C1 C1B1 B1B0 B0C0 C0D0 D0E0 E0E1 E1D1 D1C1 C1D1 D1D2 D2D3 D3C3 C3C2 C2D2 D2E2 E2E1 E1E0 E0D0 D0C0 C0B0 B0A0 A0A1 A1B1 B1B2 B2B1 B1B0 B0A0 A0A1 A1A0 A0B0 B0C0 C0D0 D0D1 D1D0 D0C0 C0B0 B0A0 A0A1 A1B1 B1B2 B2C2 C2B2 B2A2 A2B2 B2B1 B1B0 B0C0 C0C1 C1B1 B1B2 B2B3 B3A3 A3A2 A2B2 B2B1 B1B0 B0B1 B1A1 A1A0 A0B0 B0B1 B1B2 B2B3 B3B4 B4C4 C4B4 B4A4 A4A3 A3A2 A2B2 B2B1 B1A1 A1A0 A0B0 B0B1 B1B0 B0C0 C0C1 C1C2 C2B2 B2A2 A2A3 A3B3 B3B4 B4C4 C4B4 B4C4 C4B4 B4A4 A4A3 A3A2 A2A1 A1B1 B1B0"/>
    </vehicle>
    <vehicle id="1.0" depart="0.00" departPos="random" departSpeed="max">
        <route edges="B2B3 B3B4 B4A4 A4A3 A3B3 B3B4 B4B3 B3B2 B2B3 B3B4 B4C4 C4D4 D4C4 C4C3 C3B3 B3A3 A3B3 B3C3 C3C4 C4C3 C3D3 D3D2 D2D1 D1E1 E1E0 E0D0 D0D1 D1C1 C1C0 C0D0 D0E0 E0E1 E1D1 D1C1 C1C0 C0D0 D0E0 E0E1 E1E0 E0D0 D0D1 D1D0 D0C0 C0B0 B0A0 A0A1 A1A2 A2B2 B2B1 B1B2 B2C2 C2C1 C1D1 D1C1 C1C2 C2B2 B2B1 B1C1 C1C0 C0B0 B0C0 C0C1 C1B1 B1A1 A1A2 A2A3 A3B3 B3C3 C3C4 C4D4 D4E4 E4E3 E3E4 E4D4 D4D3 D3E3 E3E2 E2E3 E3D3 D3C3 C3C2 C2C1 C1C0 C0B0 B0A0 A0A1 A1B1 B1C1 C1C2 C2B2 B2B1 B1B2 B2B1 B1C1 C1C0 C0D0 D0D1 D1C1 C1B1 B1A1 A1A2 A2A3 A3B3 B3B4 B4A4 A4A3 A3A2 A2A1 A1A0 A0B0 B0B1 B1A1 A1A0 A0B0 B0B1 B1A1 A1A0 A0B0 B0B1 B1A1 A1A0 A0B0 B0B1 B1A1 A1A0 A0B0 B0A0 A0A1 A1A0 A0B0 B0B1 B1A1 A1A2 A2A3 A3A2 A2B2 B2B3 B3A3 A3A4 A4B4 B4C4 C4B4 B4A4 A4A3 A3B3 B3B2 B2B1 B1A1 A1A0 A0B0 B0B1 B1A1 A1A2 A2A1 A1A2 A2A3 A3A4 A4B4 B4C4 C4D4 D4D3 D3D2 D2D3 D3D4 D4C4 C4C3 C3D3 D3E3 E3D3 D3E3 E3D3 D3E3 E3E4 E4D4 D4C4 C4D4 D4C4 C4C3 C3D3 D3D4 D4C4 C4B4 B4B3 B3B4 B4B3 B3C3 C3C2 C2B2 B2B3 B3A3 A3A2 A2A1 A1A2 A2B2 B2B1 B1B0 B0A0 A0A1 A1B1 B1A1 A1B1 B1C1 C1B1 B1A1 A1A0 A0B0 B0A0 A0A1 A1B1 B1B2 B2A2 A2A1 A1A0 A0B0 B0A0 A0A1 A1B1 B1B2 B2B1 B1B2 B2B3 B3A3 A3A2 A2B2 B2C2 C2D2 D2E2 E2D2 D2C2 C2C1 C1C0 C0D0 D0D1 D1D0 D0E0 E0E1 E1D1 D1D0 D0C0 C0B0 B0A0 A0A1 A1B1 B1C1 C1C2 C2D2 D2D3 D3D2 D2D1 D1D0 D0E0 E0E1 E1E0 E0D0 D0E0 E0E1 E1E0 E0D0 D0C0 C0B0 B0B1 B1C1 C1D1 D1D2 D2C2 C2D2 D2E2 E2E1 E1E2 E2E3 E3D3 D3C3 C3C2 C2C1 C1D1 D1D0 D0E0 E0E1 E1E2 E2E3 E3E4 E4D4 D4D3 D3E3 E3E2 E2E1 E1E0 E0D0 D0C0 C0B0 B0A0 A0A1 A1B1 B1B2 B2B3 B3C3 C3C4 C4C3 C3D3 D3D4 D4E4 E4E3 E3E2 E2E1 E1E0 E0D0 D0D1 D1D2 D2E2 E2D2 D2D3 D3D4 D4D3 D3E3 E3E2 E2E1 E1E0 E0D0 D0D1 D1D2 D2D3 D3C3 C3D3 D3D4 D4D3 D3E3 E3D3 D3E3 E3D3 D3D4 D4C4 C4B4 B4C4 C4D4 D4D3 D3C3 C3B3 B3B4 B4A4 A4A3 A3A4 A4B4 B4B3 B3C3 C3D3 D3D2 D2D1 D1D0 D0D1 D1D0 D0E0 E0E1 E1D1 D1E1 E1E2 E2D2 D2C2 C2B2 B2A2 A2B2 B2B3 B3B2 B2B1 B1A1 A1B1 B1B2 B2B3 B3A3 A3A2 A2B2 B2B3 B3B4 B4A4 A4A3 A3B3 B3B2 B2A2 A2A3 A3A4 A4B4 B4B3 B3C3 C3D3 D3D4 D4C4 C4D4 D4E4 E4E3 E3D3 D3C3 C3C2 C2C1 C1D1 D1D2 D2D3 D3E3 E3E2 E2D2 D2D1 D1E1 E1D1 D1E1 E1E2 E2D2 D2C2 C2D2 D2D3 D3C3 C3B3 B3B4 B4C4 C4D4 D4C4 C4C3 C3D3 D3D2 D2C2 C2C3 C3D3 D3E3 E3E4 E4D4 D4D3 D3D2 D2D1 D1E1 E1E0 E0D0 D0C0 C0B0 B0A0 A0A1 A1B1 B1B0 B0A0 A0A1 A1B1 B1B2 B2A2 A2A3 A3B3 B3C3 C3C4 C4B4 B4B3 B3A3 A3A4 A4B4 B4C4 C4D4 D4D3 D3C3 C3D3 D3E3 E3E2 E2E1 E1D1 D1E1 E1E0 E0D0 D0D1 D1D2 D2E2 E2E3 E3D3 D3E3 E3E4 E4D4 D4C4 C4B4 B4A4 A4A3 A3A2 A2B2 B2C2 C2C3 C3D3 D3E3 E3E2 E2D2 D2E2 E2E1 E1E0 E0D0 D0D1 D1D2 D2C2 C2C3 C3C4 C4B4 B4C4 C4B4 B4A4 A4A3 A3A2 A2B2 B2B3 B3A3 A3A2 A2B2 B2B3 B3C3 C3B3 B3C3 C3D3 D3D4 D4D3 D3C3 C3C2 C2C3 C3C4 C4B4 B4A4 A4A3 A3A2 A2B2 B2A2 A2A1 A1B1 B1C1 C1C2 C2C3 C3C2 C2C1 C1C0 C0D0 D0E0 E0E1 E1E0 E0D0 D0C0 C0D0 D0C0 C0C1 C1B1 B1B0 B0C0 C0C1 C1C0 C0D0 D0E0 E0E1 E1E0 E0D0 D0D1 D1E1 E1E0 E0D0 D0D1 D1C1 C1C0 C0C1 C1C0 C0B0 B0B1 B1C1 C1D1 D1E1 E1E0 E0D0 D0D1 D1E1 E1D1 D1C1 C1B1 B1A1 A1A2 A2B2 B2B1 B1A1 A1A2 A2A3 A3A4 A4B4 B4C4 C4C3 C3D3 D3D4 D4C4 C4C3 C3B3 B3B2 B2B1 B1B0 B0C0 C0B0 B0C0 C0D0 D0D1 D1E1 E1E0 E0D0 D0D1 D1C1 C1D1 D1D0 D0E0 E0E1 E1E0 E0D0 D0C0 C0C1 C1D1 D1D0 D0C0 C0B0 B0C0 C0B0 B0C0 C0D0 D0D1 D1E1 E1E2 E2E3 E3E2 E2D2 D2D3 D3D2 D2D1 D1E1 E1E2 E2D2 D2C2 C2C1 C1C0 C0D0 D0E0 E0E1 E1E0 E0D0 D0D1 D1D2 D2D3 D3D2 D2D1 D1E1 E1E2 E2E3 E3E4 E4D4 D4C4 C4C3 C3C2 C2D2 D2D1 D1D0 D0E0 E0E1 E1D1 D1C1 C1B1 B1B2 B2B3 B3B2 B2A2 A2A1 A1B1 B1B2 B2B1 B1A1 A1A0 A0B0 B0C0 C0C1 C1C0 C0D0 D0E0 E0E1 E1E2 E2E3 E3D3 D3C3 C3B3 B3B4 B4A4 A4A3 A3B3 B3A3 A3B3 B3C3 C3C4 C4B4 B4A4 A4A3 A3B3 B3B4 B4A4 A4A3 A3A4 A4B4 B4B3 B3B2 B2A2 A2A1 A1B1 B1C1 C1B1 B1A1 A1A2 A2A1 A1B1 B1C1 C1B1 B1A1 A1A0 A0B0 B0B1 B1A1 A1B1 B1B2 B2C2 C2C3 C3C2 C2D2 D2D3 D3E3 E3D3 D3D2 D2E2 E2D2 D2C2 C2C1 C1D1 D1D0 D0E0 E0E1 E1D1 D1C1 C1C0 C0D0 D0D1 D1D0 D0E0 E0E1 E1D1 D1C1 C1C2 C2C1 C1D1 D1D2 D2D3 D3D4 D4E4 E4E3 E3E4 E4D4 D4C4 C4C3 C3D3 D3C3 C3B3 B3B4 B4C4 C4C3 C3D3 D3C3 C3B3 B3B2 B2B1 B1B0 B0C0 C0B0 B0C0 C0D0 D0D1 D1D2 D2C2 C2C3 C3C4 C4C3 C3D3 D3D2 D2D3 D3D4 D4E4 E4E3 E3D3 D3D4 D4D3 D3D2 D2D1 D1E1 E1E0 E0D0 D0D1 D1E1 E1E2 E2E3 E3E4 E4D4 D4D3 D3D2 D2D3 D3D4 D4E4 E4E3 E3D3 D3D2 D2C2 C2B2 B2B1 B1A1 A1B1 B1C1 C1C2 C2D2 D2D1 D1C1 C1B1 B1C1 C1C2 C2C3 C3C4 C4B4 B4B3 B3B4 B4C4 C4B4 B4A4 A4A3 A3A2 A2A3 A3B3 B3C3 C3C2 C2D2 D2D3 D3C3 C3C2 C2B2 B2A2 A2B2 B2B1 B1C1 C1B1 B1B2 B2B3 B3A3 A3A2 A2A3 A3A4 A4B4 B4C4 C4D4 D4D3 D3D2 D2E2 E2E3 E3D3 D3D2 D2D1 D1E1 E1E0 E0D0 D0E0 E0E1 E1E2 E2E3 E3E4 E4D4 D4E4 E4E3 E3D3 D3D2 D2D3 D3C3 C3C2 C2C1 C1C0 C0D0 D0E0 E0E1 E1E2 E2E1 E1E0 E0D0 D0C0 C0B0 B0A0 A0A1 A1A2 A2A3 A3A4 A4B4 B4C4 C4B4 B4B3 B3A3 A3A4 A4B4 B4C4 C4C3 C3C2 C2C1 C1C0 C0D0 D0D1 D1C1 C1C0 C0B0 B0A0 A0A1 A1A2 A2A3 A3A4 A4B4 B4B3 B3A3 A3A2 A2A3 A3B3 B3B2 B2C2 C2C1 C1B1 B1A1 A1B1 B1C1 C1C0 C0D0 D0E0 E0E1 E1E2 E2D2 D2D1 D1E1 E1E0 E0D0"/>
    </vehicle>
    <vehicle id="10.0" depart="0.00" departPos="random" departSpeed="max">
        <route edges="D4C4 C4C3 C3C2 C2D2 D2E2 E2D2 D2D1 D1E1 E1D1 D1D0 D0E0 E0E1 E1E2 E2D2 D2C2 C2B2 B2B3 B3A3 A3A2 A2B2 B2B3 B3B4 B4A4 A4A3 A3A4 A4B4 B4C4 C4D4 D4E4 E4E3 E3E4 E4D4 D4E4 E4E3 E3E2 E2E1 E1E0 E0D0 D0C0 C0B0 B0B1 B1B2 B2A2 A2A1 A1A2 A2A3 A3A2 A2B2 B2B3 B3C3 C3C2 C2C1 C1B1 B1B2 B2B1 B1A1 A1B1 B1C1 C1D1 D1D2 D2D1 D1D0 D0C0 C0D0 D0D1 D1D2 D2C2 C2C1 C1B1 B1A1 A1A2 A2A3 A3A4 A4B4 B4C4 C4B4 B4C4 C4B4 B4B3 B3B2 B2C2 C2D2 D2D1 D1E1 E1E0 E0D0 D0C0 C0B0 B0B1 B1B2 B2B3 B3A3 A3A2 A2A1 A1B1 B1C1 C1C0 C0D0 D0D1 D1D0 D0C0 C0C1 C1D1 D1D2 D2D3 D3C3 C3C4 C4D4 D4E4 E4E3 E3D3 D3D4 D4D3 D3E3 E3E2 E2D2 D2C2 C2C1 C1C2 C2C3 C3B3 B3B4 B4C4 C4B4 B4C4 C4B4 B4B3 B3B2 B2B3 B3C3 C3C4 C4B4 B4A4 A4A3 A3B3 B3C3 C3C4 C4C3 C3D3 D3C3 C3B3 B3B4 B4A4 A4A3 A3A4 A4B4 B4C4 C4D4 D4D3 D3C3 C3C2 C2C1 C1D1 D1D0 D0E0 E0E1 E1E2 E2E3 E3D3 D3D2 D2E2 E2E1 E1E0 E0D0 D0C0 C0C1 C1D1 D1D2 D2E2 E2D2 D2D3 D3D4 D4C4 C4C3 C3C4 C4B4 B4A4 A4A3 A3A4 A4B4 B4C4 C4C3 C3D3 D3D4 D4C4 C4C3 C3C2 C2D2 D2C2 C2C3 C3C4 C4B4 B4A4 A4A3 A3A4 A4B4 B4A4 A4A3 A3A2 A2B2 B2B1 B1A1 A1A2 A2A3 A3A2 A2B2 B2C2 C2D2 D2E2 E2E3 E3D3 D3D4 D4C4 C4C3 C3C2 C2B2 B2B1 B1A1 A1B1 B1A1 A1A2 A2A3 A3A2 A2A1 A1B1 B1C1 C1D1 D1D0 D0C0 C0B0 B0B1 B1A1 A1A0 A0B0 B0C0 C0C1 C1C2 C2C3 C3D3 D3E3 E3D3 D3D2 D2D1 D1C1 C1C0 C0D0 D0D1 D1C1 C1B1 B1A1 A1A0 A0B0 B0C0 C0C1 C1C2 C2B2 B2B1 B1C1 C1C0 C0C1 C1D1 D1D2 D2D3 D3C3 C3B3 B3A3 A3A2 A2A1 A1B1 B1B2 B2B1 B1B0 B0A0 A0A1 A1A2 A2A3 A3A4 A4B4 B4C4 C4C3 C3C2 C2C3 C3B3 B3A3 A3A2 A2B2 B2B3 B3B4 B4C4 C4B4 B4C4 C4D4 D4C4 C4C3 C3C4 C4C3 C3B3 B3A3 A3B3 B3C3 C3B3 B3A3 A3A4 A4B4 B4B3 B3A3 A3A2 A2B2 B2C2 C2B2 B2B1 B1A1 A1B1 B1A1 A1B1 B1B2 B2A2 A2A1 A1A0 A0B0 B0B1 B1B2 B2A2 A2A1 A1A2 A2A3 A3A4 A4B4 B4B3 B3A3 A3B3 B3A3 A3A2 A2A1 A1B1 B1B2 B2B3 B3B4 B4A4 A4A3 A3A4 A4B4 B4A4 A4A3 A3A4 A4B4 B4B3 B3A3 A3B3 B3B2 B2B1 B1A1 A1A2 A2A1 A1A2 A2B2 B2C2 C2C3 C3B3 B3B4 B4A4 A4A3 A3B3 B3B2 B2A2 A2A1 A1B1 B1B0 B0C0 C0C1 C1C0 C0B0 B0A0 A0A1 A1B1 B1B2 B2C2 C2C3 C3C4 C4C3 C3B3 B3B2 B2B1 B1A1 A1B1 B1C1 C1D1 D1E1 E1E2 E2D2 D2D1 D1C1 C1C0 C0C1 C1C0 C0C1 C1B1 B1B2 B2B1 B1B2 B2A2 A2A1 A1A0 A0B0 B0C0 C0C1 C1D1 D1D2 D2D3 D3C3 C3B3 B3A3 A3B3 B3C3 C3D3 D3D2 D2D1 D1D0 D0E0 E0E1 E1D1 D1D0 D0D1 D1D2 D2C2 C2B2 B2C2 C2C3 C3D3 D3C3 C3B3 B3B2 B2C2 C2C3 C3B3 B3B4 B4A4 A4A3 A3A4 A4B4 B4C4 C4D4 D4D3 D3D2 D2C2 C2B2 B2A2 A2A1 A1A2 A2B2 B2B3 B3B4 B4C4 C4D4 D4D3 D3E3 E3E4 E4D4 D4D3 D3E3 E3D3 D3C3 C3B3 B3C3 C3C4 C4C3 C3B3 B3B2 B2A2 A2B2 B2A2 A2A1 A1A0 A0B0 B0A0 A0A1 A1A2 A2A3 A3B3 B3C3 C3C2 C2C1 C1D1 D1E1 E1E2 E2E3 E3D3 D3D4 D4E4 E4E3 E3E4 E4D4 D4E4 E4E3 E3D3 D3D2 D2C2 C2D2 D2D1 D1D2 D2D1 D1D0 D0E0 E0E1 E1D1 D1C1 C1C0 C0C1 C1C2 C2D2 D2C2 C2C1 C1C0 C0B0 B0C0 C0D0 D0E0 E0E1 E1E2 E2E1 E1E0 E0D0 D0D1 D1C1 C1D1 D1C1 C1B1 B1B2 B2B1 B1A1 A1B1 B1C1 C1D1 D1E1 E1E2 E2E3 E3D3 D3C3 C3C4 C4B4 B4A4 A4A3 A3A4 A4B4 B4C4 C4D4 D4C4 C4B4 B4B3 B3A3 A3B3 B3B2 B2C2 C2C3 C3C4 C4D4 D4E4 E4E3 E3E4 E4D4 D4E4 E4E3 E3D3 D3C3 C3C2 C2B2 B2A2 A2B2 B2B1 B1B0 B0A0 A0A1 A1B1 B1A1 A1B1 B1B0 B0C0 C0C1 C1D1 D1E1 E1E2 E2E1 E1E2 E2E3 E3D3 D3D4 D4E4 E4E3 E3D3 D3E3 E3D3 D3C3 C3C2 C2D2 D2D3 D3C3 C3D3 D3D4 D4D3 D3E3 E3E4 E4D4 D4D3 D3D2 D2D3 D3D4 D4E4 E4E3 E3E2 E2E3 E3E4 E4D4 D4C4 C4D4 D4E4 E4E3 E3D3 D3E3 E3E4 E4D4 D4D3 D3D2 D2E2 E2D2 D2D1 D1C1 C1B1 B1B0 B0C0 C0C1 C1B1 B1A1 A1A2 A2A3 A3A2 A2A1 A1A2 A2B2 B2A2 A2A3 A3A4 A4B4 B4A4 A4A3 A3B3 B3B4 B4A4 A4A3 A3B3 B3B4 B4C4 C4D4 D4E4 E4E3 E3D3 D3D4 D4E4 E4E3 E3E2 E2E1 E1E0 E0D0 D0C0 C0B0 B0B1 B1A1 A1A0 A0B0 B0A0 A0A1 A1A2 A2A3 A3A4 A4B4 B4C4 C4C3 C3C4 C4B4 B4A4 A4A3 A3B3 B3B2 B2A2 A2A1 A1B1 B1B2 B2B3 B3B4 B4C4 C4C3 C3D3 D3C3 C3D3 D3D4 D4C4 C4C3 C3B3 B3A3 A3A2 A2A1 A1B1 B1A1 A1A2 A2B2 B2C2 C2D2 D2E2 E2E1 E1E0 E0D0 D0C0 C0B0 B0C0 C0C1 C1C0 C0D0 D0C0 C0B0 B0A0 A0A1 A1B1 B1B2 B2B3 B3B4 B4C4 C4D4 D4D3 D3D2 D2D1 D1C1 C1B1 B1A1 A1A0 A0B0 B0B1 B1A1 A1A2 A2A3 A3A4 A4B4 B4B3 B3B2 B2B1 B1B0 B0C0 C0B0 B0B1 B1A1 A1A2 A2B2 B2C2 C2C3 C3B3 B3A3 A3A4 A4B4 B4A4 A4A3 A3A4 A4B4 B4C4 C4C3 C3C2 C2C1 C1C0 C0D0 D0D1 D1C1 C1C0 C0D0 D0D1 D1D0 D0E0 E0E1 E1E2 E2E3 E3E4 E4D4 D4D3 D3C3 C3B3 B3B2 B2C2 C2C3 C3C2 C2D2 D2E2 E2E3 E3E2 E2E1 E1D1 D1D2 D2D1 D1E1 E1D1 D1C1 C1C2 C2B2 B2B1 B1C1 C1C0 C0D0 D0D1 D1C1 C1C0 C0D0 D0D1 D1D2 D2D1 D1D0 D0E0 E0E1 E1D1 D1C1 C1B1 B1C1 C1D1 D1E1 E1E0 E0D0 D0D1 D1C1 C1C0 C0D0 D0D1 D1E1 E1E2 E2D2 D2D3 D3C3 C3B3 B3B4 B4C4 C4D4 D4C4 C4C3 C3C2 C2B2 B2C2 C2B2 B2A2 A2A1 A1A2 A2A3 A3A4 A4B4 B4C4 C4C3 C3C2 C2C3 C3B3 B3A3 A3A2 A2A3 A3A2 A2A1 A1A0 A0B0 B0B1 B1A1 A1A0 A0B0 B0C0 C0C1 C1B1 B1B0 B0C0 C0D0 D0C0 C0B0 B0B1 B1C1 C1D1 D1E1 E1E2 E2E3 E3E4 E4D4 D4D3 D3E3 E3E4 E4D4 D4D3 D3D4 D4C4 C4C3 C3C2 C2C1 C1D1 D1D0 D0C0 C0D0 D0D1 D1C1 C1C0 C0D0 D0C0 C0B0 B0A0 A0A1 A1A0 A0B0 B0A0 A0A1 A1A0 A0B0 B0B1 B1B0 B0A0 A0A1 A1B1 B1B2 B2B1 B1B0 B0A0 A0A1 A1B1 B1B2 B2C2 C2C3 C3C4 C4B4 B4B3 B3B2 B2B1 B1B2 B2B3 B3B4"/>
    </vehicle>
    <vehicle id="11.0" depart="0.00" departPos="random" departSpeed="max">
        <route edges="B3C3 C3C4 C4B4 B4A4 A4A3 A3B3 B3C3 C3D3 D3C3 C3C4 C4B4 B4B3 B3B2 B2B3 B3C3 C3D3 D3D4 D4C4 C4C3 C3D3 D3C3 C3C4 C4B4 B4C4 C4D4 D4D3 D3E3 E3E4 E4D4 D4D3 D3D4 D4E4 E4E3 E3E2 E2E1 E1E0 E0D0 D0C0 C0B0 B0C0 C0C1 C1D1 D1C1 C1C0 C0B0 B0B1 B1A1 A1A0 A0B0 B0C0 C0D0 D0E0 E0E1 E1D1 D1D2 D2E2 E2E3 E3D3 D3D4 D4C4 C4C3 C3C2 C2C1 C1C0 C0C1 C1C0 C0C1 C1D1 D1E1 E1E2 E2D2 D2C2 C2D2 D2D1 D1C1 C1C2 C2B2 B2A2 A2A1 A1B1 B1A1 A1A0 A0B0 B0B1 B1B0 B0C0 C0D0 D0E0 E0E1 E1D1 D1D0 D0C0 C0D0 D0D1 D1C1 C1C2 C2B2 B2B3 B3B4 B4A4 A4A3 A3B3 B3C3 C3D3 D3D2 D2D1 D1D0 D0E0 E0E1 E1E2 E2E3 E3E4 E4D4 D4C4 C4C3 C3C2 C2C3 C3C2 C2B2 B2B3 B3A3 A3A2 A2B2 B2C2 C2C3 C3C2 C2D2 D2E2 E2E3 E3D3 D3C3 C3C2 C2C3 C3C4 C4D4 D4E4 E4E3 E3E2 E2E1 E1E0 E0D0 D0C0 C0C1 C1C2 C2C3 C3C4 C4B4 B4B3 B3A3 A3A2 A2A1 A1A2 A2A3 A3B3 B3B2 B2B3 B3C3 C3B3 B3A3 A3A2 A2B2 B2B1 B1B0 B0C0 C0C1 C1B1 B1B0 B0A0 A0A1 A1A2 A2A3 A3A4 A4B4 B4B3 B3C3 C3C2 C2D2 D2E2 E2E3 E3D3 D3C3 C3C2 C2D2 D2D1 D1D0 D0E0 E0E1 E1E2 E2E3 E3E4 E4D4 D4C4 C4B4 B4B3 B3B2 B2B1 B1C1 C1C2 C2C3 C3B3 B3B4 B4A4 A4A3 A3B3 B3C3 C3B3 B3A3 A3A4 A4B4 B4C4 C4C3 C3C2 C2D2 D2E2 E2D2 D2D1 D1D0 D0E0 E0E1 E1E2 E2E3 E3D3 D3D4 D4C4 C4C3 C3D3 D3E3 E3E2 E2E1 E1E0 E0D0 D0C0 C0B0 B0B1 B1B0 B0C0 C0C1 C1C2 C2B2 B2B3 B3B4 B4A4 A4A3 A3A2 A2B2 B2A2 A2A1 A1B1 B1C1 C1C2 C2C3 C3B3 B3A3 A3A2 A2B2 B2C2 C2D2 D2C2 C2C3 C3C4 C4B4 B4C4 C4B4 B4B3 B3B4 B4A4 A4A3 A3A2 A2B2 B2B1 B1A1 A1A2 A2A3 A3A4 A4B4 B4B3 B3B2 B2A2 A2A3 A3A2 A2A3 A3B3 B3B4 B4A4 A4A3 A3B3 B3B2 B2B1 B1B0 B0C0 C0C1 C1B1 B1C1 C1C2 C2C1 C1D1 D1C1 C1C2 C2B2 B2B3 B3C3 C3C2 C2D2 D2E2 E2E3 E3E4 E4D4 D4C4 C4B4 B4B3 B3A3 A3A4 A4B4 B4C4 C4D4 D4C4 C4D4 D4E4 E4E3 E3E2 E2D2 D2C2 C2C3 C3B3 B3B4 B4A4 A4A3 A3B3 B3A3 A3A4 A4B4 B4B3 B3B2 B2B3 B3A3 A3A2 A2B2 B2B1 B1B0 B0C0 C0B0 B0A0 A0A1 A1B1 B1B0 B0B1 B1B2 B2B3 B3C3 C3B3 B3C3 C3C2 C2D2 D2D3 D3D2 D2E2 E2E1 E1D1 D1C1 C1D1 D1D2 D2D3 D3D2 D2C2 C2C1 C1B1 B1C1 C1C0 C0D0 D0D1 D1C1 C1B1 B1A1 A1A2 A2A3 A3A4 A4B4 B4C4 C4B4 B4B3 B3C3 C3C4 C4B4 B4B3 B3B2 B2B1 B1C1 C1D1 D1C1 C1C2 C2C3 C3C2 C2B2 B2B1 B1C1 C1C0 C0B0 B0A0 A0A1 A1A2 A2A1 A1B1 B1A1 A1A2 A2B2 B2B3 B3A3 A3A4 A4B4 B4A4 A4A3 A3A2 A2A3 A3A4 A4B4 B4B3 B3B2 B2B1 B1A1 A1A2 A2A3 A3A4 A4B4 B4C4 C4D4 D4E4 E4E3 E3E2 E2D2 D2D3 D3D4 D4D3 D3D2 D2D1 D1E1 E1E2 E2D2 D2D1 D1C1 C1B1 B1A1 A1A2 A2B2 B2C2 C2C3 C3C4 C4D4 D4D3 D3E3 E3E4 E4D4 D4E4 E4E3 E3D3 D3E3 E3E2 E2E1 E1D1 D1C1 C1B1 B1B2 B2A2 A2A3 A3A2 A2B2 B2B1 B1C1 C1D1 D1D0 D0C0 C0C1 C1D1 D1D0 D0E0 E0E1 E1E2 E2D2 D2E2 E2E1 E1E0 E0D0 D0C0 C0B0 B0C0 C0C1 C1B1 B1B0 B0C0 C0C1 C1C0 C0B0 B0B1 B1C1 C1C2 C2C1 C1C2 C2D2 D2C2 C2B2 B2C2 C2B2 B2B1 B1B0 B0C0 C0D0 D0E0 E0E1 E1E0 E0D0 D0E0 E0E1 E1E2 E2D2 D2C2 C2B2 B2C2 C2C1 C1B1 B1C1 C1C0 C0C1 C1D1 D1D0 D0E0 E0E1 E1D1 D1D2 D2D3 D3C3 C3B3 B3B2 B2C2 C2C1 C1C0 C0B0 B0A0 A0A1 A1A2 A2A3 A3A4 A4B4 B4B3 B3A3 A3A2 A2A1 A1A0 A0B0 B0A0 A0A1 A1B1 B1B2 B2A2 A2B2 B2B3 B3A3 A3B3 B3A3 A3A4 A4B4 B4C4 C4B4 B4B3 B3C3 C3C4 C4D4 D4E4 E4E3 E3E4 E4D4 D4E4 E4E3 E3E2 E2E1 E1E2 E2E3 E3D3 D3C3 C3B3 B3C3 C3D3 D3E3 E3E2 E2D2 D2D3 D3D2 D2D1 D1D0 D0E0 E0E1 E1E2 E2D2 D2D3 D3D4 D4C4 C4C3 C3D3 D3E3 E3E4 E4D4 D4D3 D3E3 E3E4 E4D4 D4C4 C4C3 C3C4 C4D4 D4E4 E4E3 E3E2 E2D2 D2D3 D3D4 D4C4 C4C3 C3C2 C2D2 D2E2 E2D2 D2D1 D1D0 D0E0 E0E1 E1E2 E2D2 D2D1 D1C1 C1D1 D1E1 E1E0 E0D0 D0E0 E0E1 E1D1 D1D0 D0E0 E0E1 E1E2 E2D2 D2C2 C2C3 C3D3 D3D4 D4D3 D3D2 D2D1 D1E1 E1E0 E0D0 D0C0 C0D0 D0E0 E0E1 E1D1 D1C1 C1D1 D1D0 D0C0 C0D0 D0D1 D1C1 C1D1 D1D2 D2C2 C2D2 D2E2 E2E3 E3E4 E4D4 D4C4 C4B4 B4B3 B3A3 A3A2 A2B2 B2B1 B1B2 B2A2 A2B2 B2C2 C2B2 B2B1 B1A1 A1A2 A2A3 A3A4 A4B4 B4A4 A4A3 A3B3 B3B4 B4A4 A4A3 A3B3 B3C3 C3C4 C4B4 B4C4 C4D4 D4E4 E4E3 E3E2 E2E1 E1E0 E0D0 D0C0 C0B0 B0B1 B1B0 B0B1 B1C1 C1B1 B1A1 A1A0 A0B0 B0B1 B1B2 B2B3 B3B2 B2B1 B1C1 C1C0 C0D0 D0D1 D1C1 C1C0 C0D0 D0E0 E0E1 E1E2 E2D2 D2D3 D3C3 C3C2 C2B2 B2B3 B3B4 B4A4 A4A3 A3A4 A4B4 B4A4 A4A3 A3B3 B3C3 C3C2 C2C3 C3C2 C2C1 C1D1 D1E1 E1E2 E2D2 D2D1 D1C1 C1C0 C0B0 B0B1 B1B2 B2B3 B3A3 A3A2 A2A1 A1A0 A0B0 B0B1 B1B0 B0C0 C0B0 B0A0 A0A1 A1A2 A2A3 A3A4 A4B4 B4B3 B3C3 C3C4 C4B4 B4B3 B3B2 B2B3 B3B4 B4C4 C4C3 C3D3 D3D4 D4D3 D3D2 D2E2 E2E1 E1E2 E2E3 E3D3 D3E3 E3D3 D3D4 D4E4 E4E3 E3E4 E4D4 D4C4 C4C3 C3C2 C2D2 D2D3 D3C3 C3C4 C4B4 B4B3 B3A3 A3B3 B3B4 B4A4 A4A3 A3A4 A4B4 B4C4 C4D4 D4E4 E4E3 E3E4 E4D4 D4D3 D3E3 E3D3 D3C3 C3C4 C4D4 D4E4 E4E3 E3E2 E2E1 E1E0 E0D0 D0D1 D1E1 E1E0 E0D0 D0C0 C0B0 B0A0 A0A1 A1A0 A0B0 B0A0 A0A1 A1A2 A2A3 A3A4 A4B4 B4C4 C4D4 D4E4 E4E3 E3E4 E4D4 D4C4 C4D4 D4D3 D3E3 E3E2 E2E1 E1E0 E0D0 D0C0 C0B0 B0A0 A0A1 A1A0 A0B0 B0A0 A0A1 A1A2 A2A1 A1B1 B1B0 B0A0 A0A1 A1B1 B1B2 B2B3 B3B4 B4C4 C4D4 D4E4 E4E3 E3D3 D3D4 D4C4 C4B4 B4A4 A4A3 A3A4 A4B4 B4C4 C4D4 D4C4 C4B4 B4C4 C4D4 D4C4 C4B4 B4B3 B3B4 B4C4 C4B4 B4B3 B3C3 C3C4 C4B4 B4B3 B3C3 C3C2 C2C1 C1D1 D1E1 E1E0 E0D0 D0E0 E0E1 E1D1 D1D0 D0E0 E0E1 E1D1 D1D2 D2C2"/>
    </vehicle>
    <vehicle id="12.0" depart="0.00" departPos="random" departSpeed="max">
        <route edges="E3E2 E2E1 E1E0 E0D0 D0D1 D1C1 C1D1 D1C1 C1D1 D1E1 E1E0 E0D0 D0C0 C0D0 D0E0 E0E1 E1E2 E2D2 D2D1 D1D0 D0E0 E0E1 E1D1 D1D0 D0E0 E0E1 E1E2 E2D2 D2D3 D3D4 D4E4 E4E3 E3E2 E2D2 D2D3 D3D2 D2D3 D3D2 D2D1 D1C1 C1C0 C0D0 D0C0 C0B0 B0B1 B1A1 A1A2 A2A1 A1B1 B1B2 B2C2 C2D2 D2C2 C2C1 C1D1 D1D2 D2E2 E2E3 E3E4 E4D4 D4C4 C4D4 D4D3 D3E3 E3E4 E4D4 D4C4 C4D4 D4C4 C4C3 C3B3 B3B2 B2B3 B3C3 C3B3 B3B4 B4A4 A4A3 A3B3 B3B4 B4A4 A4A3 A3B3 B3B2 B2C2 C2C3 C3B3 B3C3 C3B3 B3B4 B4A4 A4A3 A3A2 A2A3 A3A4 A4B4 B4C4 C4B4 B4A4 A4A3 A3B3 B3C3 C3D3 D3E3 E3D3 D3D4 D4E4 E4E3 E3E2 E2E1 E1D1 D1D0 D0D1 D1C1 C1B1 B1B0 B0B1 B1A1 A1B1 B1C1 C1C2 C2B2 B2B3 B3B2 B2C2 C2B2 B2B1 B1B0 B0C0 C0B0 B0A0 A0A1 A1B1 B1B0 B0B1 B1B2 B2B3 B3A3 A3A2 A2A1 A1A0 A0B0 B0C0 C0C1 C1D1 D1C1 C1C2 C2B2 B2B3 B3C3 C3C4 C4D4 D4C4 C4C3 C3D3 D3D4 D4E4 E4E3 E3E2 E2D2 D2D3 D3D4 D4E4 E4E3 E3D3 D3E3 E3E4 E4D4 D4D3 D3E3 E3E2 E2E1 E1E0 E0D0 D0C0 C0D0 D0D1 D1C1 C1B1 B1C1 C1C0 C0B0 B0C0 C0B0 B0A0 A0A1 A1A0 A0B0 B0A0 A0A1 A1A2 A2A1 A1B1 B1B2 B2C2 C2D2 D2D3 D3D4 D4D3 D3C3 C3B3 B3B2 B2A2 A2A1 A1A0 A0B0 B0C0 C0C1 C1C2 C2C1 C1C0 C0D0 D0E0 E0E1 E1E2 E2D2 D2D1 D1E1 E1E2 E2E1 E1D1 D1C1 C1B1 B1A1 A1A2 A2B2 B2B3 B3C3 C3C2 C2C3 C3C2 C2B2 B2B3 B3B4 B4B3 B3B2 B2B1 B1C1 C1C0 C0B0 B0A0 A0A1 A1A2 A2A1 A1B1 B1B2 B2A2 A2A1 A1A0 A0B0 B0A0 A0A1 A1B1 B1B2 B2B1 B1B0 B0C0 C0B0 B0B1 B1A1 A1A0 A0B0 B0B1 B1A1 A1A0 A0B0 B0B1 B1B2 B2A2 A2A1 A1A2 A2A1 A1A0 A0B0 B0C0 C0C1 C1B1 B1A1 A1A0 A0B0 B0B1 B1B0 B0C0 C0D0 D0E0 E0E1 E1D1 D1E1 E1E0 E0D0 D0C0 C0B0 B0C0 C0C1 C1C0 C0D0 D0E0 E0E1 E1D1 D1E1 E1E2 E2D2 D2C2 C2C1 C1B1 B1B2 B2B3 B3A3 A3A2 A2B2 B2B1 B1C1 C1C2 C2D2 D2D1 D1E1 E1D1 D1D0 D0E0 E0E1 E1E2 E2E1 E1E0 E0D0 D0C0 C0B0 B0C0 C0D0 D0C0 C0C1 C1D1 D1C1 C1B1 B1A1 A1A0 A0B0 B0B1 B1A1 A1A2 A2A3 A3A2 A2A1 A1A0 A0B0 B0A0 A0A1 A1A2 A2A3 A3A2 A2A1 A1B1 B1B2 B2C2 C2D2 D2E2 E2E3 E3D3 D3E3 E3E2 E2D2 D2C2 C2D2 D2C2 C2D2 D2E2 E2D2 D2C2 C2D2 D2E2 E2E1 E1E0 E0D0 D0C0 C0C1 C1C0 C0D0 D0D1 D1D2 D2C2 C2C1 C1D1 D1E1 E1D1 D1E1 E1E0 E0D0 D0C0 C0B0 B0B1 B1A1 A1B1 B1B2 B2C2 C2C1 C1B1 B1B0 B0A0 A0A1 A1A2 A2B2 B2B3 B3B2 B2C2 C2C3 C3D3 D3D2 D2D1 D1E1 E1E2 E2E3 E3E4 E4D4 D4C4 C4C3 C3C2 C2C1 C1C0 C0C1 C1C2 C2B2 B2B3 B3C3 C3B3 B3B4 B4A4 A4A3 A3A2 A2A3 A3B3 B3B2 B2B1 B1B0 B0B1 B1A1 A1B1 B1C1 C1B1 B1B0 B0C0 C0D0 D0D1 D1D0 D0D1 D1C1 C1C0 C0D0 D0D1 D1D2 D2D3 D3E3 E3E2 E2E3 E3E2 E2D2 D2C2 C2C3 C3D3 D3D4 D4E4 E4E3 E3D3 D3C3 C3C4 C4B4 B4C4 C4B4 B4B3 B3A3 A3A2 A2A1 A1B1 B1A1 A1B1 B1B0 B0A0 A0A1 A1A0 A0B0 B0B1 B1B2 B2B3 B3B4 B4A4 A4A3 A3B3 B3C3 C3D3 D3D2 D2E2 E2D2 D2D1 D1E1 E1E2 E2D2 D2D1 D1C1 C1C2 C2C1 C1C0 C0D0 D0E0 E0E1 E1D1 D1D0 D0C0 C0D0 D0D1 D1C1 C1B1 B1A1 A1A2 A2B2 B2C2 C2C3 C3D3 D3E3 E3E2 E2D2 D2C2 C2B2 B2A2 A2B2 B2C2 C2C3 C3D3 D3D2 D2D1 D1D0 D0E0 E0E1 E1E2 E2E3 E3E2 E2E1 E1E0 E0D0 D0C0 C0D0 D0E0 E0E1 E1E0 E0D0 D0D1 D1C1 C1D1 D1D2 D2D3 D3C3 C3C2 C2D2 D2E2 E2E1 E1D1 D1D2 D2C2 C2B2 B2B1 B1A1 A1B1 B1C1 C1B1 B1A1 A1A2 A2A3 A3B3 B3B2 B2B3 B3B4 B4A4 A4A3 A3B3 B3A3 A3A2 A2A1 A1A2 A2B2 B2B3 B3A3 A3A2 A2B2 B2B1 B1B2 B2B3 B3B4 B4C4 C4C3 C3D3 D3D2 D2D1 D1E1 E1E2 E2D2 D2E2 E2E1 E1E0 E0D0 D0D1 D1D2 D2E2 E2E1 E1E0 E0D0 D0C0 C0C1 C1B1 B1A1 A1A0 A0B0 B0B1 B1A1 A1B1 B1B2 B2A2 A2A3 A3B3 B3C3 C3D3 D3E3 E3E2 E2D2 D2E2 E2D2 D2D1 D1C1 C1D1 D1D0 D0D1 D1D2 D2E2 E2E1 E1E0 E0D0 D0C0 C0C1 C1B1 B1B2 B2C2 C2D2 D2D3 D3D4 D4C4 C4B4 B4B3 B3B2 B2C2 C2B2 B2B3 B3B4 B4C4 C4D4 D4D3 D3C3 C3C4 C4D4 D4C4 C4C3 C3D3 D3D4 D4E4 E4E3 E3E2 E2E3 E3E2 E2E3 E3E4 E4D4 D4D3 D3D4 D4D3 D3C3 C3C4 C4D4 D4D3 D3D4 D4C4 C4C3 C3C2 C2B2 B2A2 A2A1 A1B1 B1C1 C1D1 D1C1 C1D1 D1E1 E1D1 D1C1 C1C2 C2B2 B2A2 A2B2 B2B3 B3A3 A3A2 A2A3 A3A4 A4B4 B4C4 C4D4 D4D3 D3D4 D4D3 D3E3 E3E4 E4D4 D4D3 D3C3 C3B3 B3A3 A3A2 A2A1 A1B1 B1B0 B0B1 B1C1 C1C2 C2B2 B2C2 C2C1 C1C0 C0B0 B0A0 A0A1 A1B1 B1B2 B2B1 B1C1 C1C2 C2D2 D2C2 C2C1 C1C0 C0B0 B0B1 B1A1 A1B1 B1C1 C1C0 C0C1 C1C2 C2C3 C3B3 B3B4 B4A4 A4A3 A3B3 B3B4 B4A4 A4A3 A3A2 A2A1 A1A2 A2A3 A3B3 B3C3 C3D3 D3C3 C3C4 C4B4 B4A4 A4A3 A3B3 B3B2 B2B1 B1C1 C1C2 C2B2 B2A2 A2A1 A1B1 B1A1 A1B1 B1A1 A1A2 A2B2 B2B1 B1C1 C1C2 C2B2 B2B3 B3C3 C3D3 D3E3 E3D3 D3D4 D4C4 C4B4 B4B3 B3C3 C3C2 C2C1 C1B1 B1B2 B2A2 A2A1 A1A0 A0B0 B0A0 A0A1 A1A2 A2A3 A3B3 B3B4 B4C4 C4D4 D4D3 D3C3 C3C2 C2C3 C3D3 D3E3 E3E4 E4D4 D4D3 D3C3 C3C2 C2C1 C1D1 D1D2 D2D1 D1D0 D0C0 C0B0 B0B1 B1B2 B2A2 A2A1 A1B1 B1C1 C1D1 D1D2 D2C2 C2D2 D2D1 D1C1 C1C2 C2B2 B2B1 B1B0 B0C0 C0C1 C1D1 D1E1 E1E0 E0D0 D0C0 C0D0 D0D1 D1E1 E1E2 E2D2 D2D3 D3C3 C3B3 B3B4 B4A4 A4A3 A3B3 B3A3 A3A4 A4B4 B4C4 C4D4 D4D3 D3E3 E3D3 D3C3 C3C2 C2B2 B2B3 B3B4 B4A4 A4A3 A3A2 A2A3 A3A2 A2B2 B2A2 A2A3 A3B3 B3A3 A3A2 A2B2 B2C2 C2C3 C3C2 C2B2 B2B1 B1B0 B0C0 C0C1 C1B1 B1B2 B2C2 C2C1 C1C0 C0D0 D0E0 E0E1 E1D1 D1E1 E1E2 E2E3 E3E4 E4D4 D4D3 D3D2 D2D1 D1C1 C1C0 C0C1 C1C0 C0D0 D0C0 C0B0 B0A0 A0A1 A1B1 B1B0 B0C0 C0C1 C1C0 C0C1 C1C0 C0D0 D0D1 D1D0"/>
    </vehicle>
    <vehicle id="13.0" depart="0.00" departPos="random" departSpeed="max">
        <route edges="A2B2 B2C2 C2C3 C3D3 D3D4 D4C4 C4D4 D4C4 C4B4 B4C4 C4D4 D4E4 E4E3 E3E2 E2D2 D2E2 E2E3 E3E4 E4D4 D4E4 E4E3 E3E2 E2E3 E3D3 D3C3 C3C4 C4B4 B4B3 B3B2 B2C2 C2D2 D2D1 D1D0 D0C0 C0B0 B0B1 B1A1 A1A0 A0B0 B0A0 A0A1 A1B1 B1B2 B2A2 A2B2 B2C2 C2C1 C1C0 C0B0 B0B1 B1C1 C1D1 D1D0 D0C0 C0B0 B0C0 C0C1 C1D1 D1E1 E1E2 E2E3 E3E2 E2D2 D2D3 D3D4 D4C4 C4C3 C3B3 B3B2 B2C2 C2C3 C3B3 B3C3 C3D3 D3E3 E3E4 E4D4 D4E4 E4E3 E3E4 E4D4 D4D3 D3C3 C3C2 C2B2 B2B3 B3B4 B4C4 C4C3 C3C2 C2D2 D2E2 E2E3 E3D3 D3C3 C3D3 D3D4 D4C4 C4C3 C3C4 C4B4 B4A4 A4A3 A3B3 B3B4 B4A4 A4A3 A3B3 B3A3 A3A2 A2A1 A1A2 A2B2 B2C2 C2C3 C3C2 C2C1 C1C0 C0D0 D0E0 E0E1 E1D1 D1D2 D2C2 C2C3 C3C2 C2B2 B2A2 A2A1 A1B1 B1C1 C1C2 C2C3 C3D3 D3D4 D4C4 C4B4 B4C4 C4C3 C3C2 C2C3 C3C4 C4B4 B4A4 A4A3 A3A4 A4B4 B4C4 C4D4 D4E4 E4E3 E3E4 E4D4 D4E4 E4E3 E3D3 D3D4 D4C4 C4C3 C3C2 C2D2 D2E2 E2E3 E3D3 D3D2 D2C2 C2C1 C1C0 C0B0 B0A0 A0A1 A1A2 A2A3 A3A2 A2A3 A3A4 A4B4 B4C4 C4D4 D4E4 E4E3 E3E2 E2D2 D2D1 D1E1 E1E2 E2E1 E1E0 E0D0 D0E0 E0E1 E1E2 E2E3 E3D3 D3C3 C3C4 C4D4 D4E4 E4E3 E3E2 E2E1 E1E0 E0D0 D0C0 C0C1 C1C0 C0D0 D0E0 E0E1 E1E0 E0D0 D0C0 C0C1 C1C2 C2B2 B2B1 B1B0 B0C0 C0D0 D0C0 C0B0 B0C0 C0B0 B0A0 A0A1 A1A2 A2B2 B2B1 B1C1 C1D1 D1E1 E1D1 D1C1 C1D1 D1D2 D2D3 D3D4 D4C4 C4D4 D4E4 E4E3 E3E4 E4D4 D4C4 C4B4 B4B3 B3C3 C3C2 C2B2 B2B1 B1C1 C1B1 B1B0 B0A0 A0A1 A1A0 A0B0 B0A0 A0A1 A1A0 A0B0 B0A0 A0A1 A1B1 B1B0 B0B1 B1A1 A1A0 A0B0 B0A0 A0A1 A1A2 A2A3 A3A2 A2B2 B2C2 C2C3 C3C4 C4B4 B4A4 A4A3 A3A4 A4B4 B4C4 C4D4 D4D3 D3D2 D2D1 D1E1 E1E0 E0D0 D0D1 D1D2 D2E2 E2E1 E1E0 E0D0 D0E0 E0E1 E1E2 E2D2 D2D1 D1E1 E1E2 E2D2 D2D3 D3E3 E3E2 E2E3 E3D3 D3E3 E3D3 D3C3 C3C2 C2D2 D2E2 E2E3 E3E4 E4D4 D4D3 D3C3 C3C4 C4B4 B4B3 B3C3 C3C2 C2B2 B2A2 A2A1 A1A2 A2B2 B2C2 C2C3 C3D3 D3D2 D2E2 E2E3 E3E4 E4D4 D4D3 D3D4 D4E4 E4E3 E3E2 E2E3 E3D3 D3C3 C3C4 C4B4 B4B3 B3C3 C3C4 C4B4 B4B3 B3B2 B2B1 B1A1 A1A0 A0B0 B0B1 B1B2 B2B1 B1A1 A1A0 A0B0 B0B1 B1C1 C1B1 B1B0 B0C0 C0C1 C1B1 B1B2 B2B3 B3C3 C3C2 C2C1 C1D1 D1D0 D0C0 C0B0 B0A0 A0A1 A1B1 B1B2 B2B3 B3B4 B4B3 B3B2 B2C2 C2C3 C3B3 B3C3 C3C4 C4B4 B4B3 B3C3 C3D3 D3D4 D4C4 C4C3 C3B3 B3A3 A3A2 A2A1 A1B1 B1C1 C1D1 D1D0 D0E0 E0E1 E1E2 E2D2 D2D1 D1D0 D0E0 E0E1 E1E0 E0D0 D0C0 C0B0 B0B1 B1A1 A1B1 B1A1 A1A0 A0B0 B0C0 C0C1 C1C2 C2B2 B2C2 C2C3 C3B3 B3A3 A3A2 A2B2 B2C2 C2D2 D2D1 D1D0 D0C0 C0C1 C1C2 C2B2 B2B1 B1B2 B2B3 B3B4 B4A4 A4A3 A3A2 A2B2 B2B3 B3B4 B4C4 C4C3 C3B3 B3B4 B4C4 C4D4 D4C4 C4B4 B4B3 B3B2 B2C2 C2C3 C3C4 C4B4 B4B3 B3B2 B2B1 B1C1 C1D1 D1E1 E1E0 E0D0 D0C0 C0B0 B0A0 A0A1 A1B1 B1C1 C1C0 C0D0 D0E0 E0E1 E1E2 E2D2 D2E2 E2D2 D2D1 D1E1 E1E0 E0D0 D0D1 D1D2 D2C2 C2C1 C1C0 C0B0 B0C0 C0C1 C1C2 C2B2 B2A2 A2A1 A1A2 A2B2 B2B1 B1A1 A1B1 B1C1 C1C0 C0D0 D0D1 D1C1 C1C0 C0C1 C1D1 D1C1 C1C2 C2B2 B2B3 B3B2 B2C2 C2D2 D2D1 D1E1 E1D1 D1C1 C1D1 D1E1 E1D1 D1D2 D2D3 D3E3 E3D3 D3D2 D2D1 D1C1 C1B1 B1B0 B0A0 A0A1 A1A2 A2A3 A3A2 A2A3 A3B3 B3C3 C3D3 D3D4 D4D3 D3D4 D4E4 E4E3 E3E4 E4D4 D4D3 D3C3 C3D3 D3D2 D2D3 D3E3 E3E2 E2D2 D2D1 D1D0 D0C0 C0D0 D0D1 D1C1 C1C0 C0B0 B0A0 A0A1 A1A2 A2A3 A3A4 A4B4 B4C4 C4C3 C3C2 C2D2 D2C2 C2B2 B2B3 B3B4 B4A4 A4A3 A3B3 B3A3 A3B3 B3A3 A3A2 A2A3 A3A4 A4B4 B4B3 B3A3 A3A4 A4B4 B4A4 A4A3 A3B3 B3B4 B4C4 C4C3 C3C2 C2C3 C3C4 C4B4 B4A4 A4A3 A3A4 A4B4 B4A4 A4A3 A3B3 B3B4 B4B3 B3B4 B4B3 B3B2 B2B1 B1B2 B2B3 B3A3 A3A2 A2B2 B2B3 B3C3 C3D3 D3D4 D4E4 E4E3 E3E4 E4D4 D4C4 C4D4 D4E4 E4E3 E3E4 E4D4 D4D3 D3D2 D2D1 D1E1 E1E0 E0D0 D0D1 D1C1 C1C2 C2D2 D2C2 C2C1 C1C0 C0C1 C1C2 C2D2 D2D3 D3C3 C3C2 C2C1 C1D1 D1D0 D0C0 C0D0 D0D1 D1E1 E1E0 E0D0 D0E0 E0E1 E1D1 D1D2 D2E2 E2E1 E1D1 D1C1 C1C2 C2C1 C1D1 D1D2 D2E2 E2E3 E3D3 D3C3 C3B3 B3B4 B4A4 A4A3 A3A2 A2A1 A1A0 A0B0 B0B1 B1B2 B2B1 B1C1 C1D1 D1C1 C1B1 B1B0 B0C0 C0D0 D0E0 E0E1 E1E0 E0D0 D0E0 E0E1 E1E0 E0D0 D0C0 C0B0 B0A0 A0A1 A1A2 A2A1 A1A0 A0B0 B0C0 C0B0 B0B1 B1A1 A1A0 A0B0 B0B1 B1A1 A1A0 A0B0 B0B1 B1A1 A1A0 A0B0 B0B1 B1C1 C1C2 C2D2 D2E2 E2E3 E3E4 E4D4 D4C4 C4B4 B4C4 C4D4 D4E4 E4E3 E3E4 E4D4 D4D3 D3C3 C3C4 C4C3 C3D3 D3E3 E3E4 E4D4 D4D3 D3C3 C3D3 D3C3 C3C4 C4C3 C3D3 D3E3 E3E4 E4D4 D4E4 E4E3 E3E2 E2E1 E1E0 E0D0 D0C0 C0B0 B0C0 C0D0 D0C0 C0C1 C1B1 B1B0 B0C0 C0B0 B0A0 A0A1 A1A2 A2B2 B2B1 B1B2 B2A2 A2A3 A3A4 A4B4 B4A4 A4A3 A3B3 B3C3 C3C4 C4B4 B4A4 A4A3 A3B3 B3C3 C3D3 D3C3 C3C4 C4D4 D4D3 D3D2 D2E2 E2E3 E3E2 E2E1 E1E0 E0D0 D0D1 D1D2 D2C2 C2B2 B2A2 A2A1 A1A2 A2B2 B2B3 B3B4 B4A4 A4A3 A3A4 A4B4 B4B3 B3C3 C3D3 D3E3 E3D3 D3E3 E3E4 E4D4 D4C4 C4C3 C3D3 D3D4 D4C4 C4B4 B4C4 C4D4 D4E4 E4E3 E3D3 D3C3 C3C2 C2C1 C1C0 C0B0 B0C0 C0B0 B0A0 A0A1 A1A2 A2A1 A1A2 A2A3 A3A4 A4B4 B4C4 C4C3 C3C2 C2C1 C1B1 B1C1 C1C0 C0D0 D0D1 D1C1 C1D1 D1D2 D2E2 E2E3 E3E2 E2D2 D2D1 D1D0 D0E0 E0E1 E1E0 E0D0 D0E0 E0E1 E1E2 E2E3 E3D3 D3C3 C3D3 D3D2 D2E2 E2E3 E3D3 D3C3 C3D3 D3D2 D2D1 D1E1 E1E2 E2D2 D2D1 D1D0 D0C0 C0B0 B0A0 A0A1 A1A2 A2B2 B2C2 C2C1 C1D1 D1C1 C1C0 C0D0 D0C0 C0B0 B0B1 B1B2 B2C2 C2C1 C1C0"/>
    </vehicle>
    <vehicle id="14.0" depart="0.00" departPos="random" departSpeed="max">