<?xml version="1.0" encoding="UTF-8"?>
<!-- generated on 2022-01-13 01:48:02.217791 by $Id$ v1.8.0-0000000000
  options: -n highway.net.xml -b 0 -e 15 -p 0.1 -o highway.trips.xml
-->
<routes xmlns:xsi="http://www.w3.org/2001/XMLSchema-instance" xsi:noNamespaceSchemaLocation="http://sumo.dlr.de/xsd/routes_file.xsd">
    <trip id="0" depart="0.00" from="r12" to="e1"/>
    <trip id="1" depart="0.10" from="e4" to="e3"/>
    <trip id="2" depart="0.20" from="r3" to="r2"/>
    <trip id="3" depart="0.30" from="r7" to="e11"/>
    <trip id="4" depart="0.40" from="e8" to="e1"/>
    <trip id="5" depart="0.50" from="e3" to="r1"/>
    <trip id="6" depart="0.60" from="e1" to="e2"/>
    <trip id="7" depart="0.70" from="r12" to="r10"/>
    <trip id="8" depart="0.80" from="e3" to="r11"/>
    <trip id="9" depart="0.90" from="r5" to="e1"/>
    <trip id="10" depart="1.00" from="r5" to="r2"/>
    <trip id="11" depart="1.10" from="e6" to="e12"/>
    <trip id="12" depart="1.20" from="r8" to="e6"/>
    <trip id="13" depart="1.30" from="e11" to="e11"/>
    <trip id="14" depart="1.40" from="r6" to="r11"/>
    <trip id="15" depart="1.50" from="r5" to="r3"/>
    <trip id="16" depart="1.60" from="r1" to="r9"/>
    <trip id="17" depart="1.70" from="e7" to="r10"/>
    <trip id="18" depart="1.80" from="r5" to="r11"/>
    <trip id="19" depart="1.90" from="r6" to="r10"/>
    <trip id="20" depart="2.00" from="r2" to="e10"/>
    <trip id="21" depart="2.10" from="e3" to="e4"/>
    <trip id="22" depart="2.20" from="e10" to="e3"/>
    <trip id="23" depart="2.30" from="e11" to="e4"/>
    <trip id="24" depart="2.40" from="r12" to="e6"/>
    <trip id="25" depart="2.50" from="e6" to="e3"/>
    <trip id="26" depart="2.60" from="e4" to="r8"/>
    <trip id="27" depart="2.70" from="r12" to="r11"/>
    <trip id="28" depart="2.80" from="e2" to="r3"/>
    <trip id="29" depart="2.90" from="e12" to="e7"/>
    <trip id="30" depart="3.00" from="r9" to="r12"/>
    <trip id="31" depart="3.10" from="r10" to="r2"/>
    <trip id="32" depart="3.20" from="r6" to="r4"/>
    <trip id="33" depart="3.30" from="e3" to="e1"/>
    <trip id="34" depart="3.40" from="e5" to="e4"/>
    <trip id="35" depart="3.50" from="e3" to="r8"/>
    <trip id="36" depart="3.60" from="r7" to="e5"/>
    <trip id="37" depart="3.70" from="r12" to="e7"/>
    <trip id="38" depart="3.80" from="r7" to="e9"/>
    <trip id="39" depart="3.90" from="e4" to="e3"/>
    <trip id="40" depart="4.00" from="r10" to="e4"/>
    <trip id="41" depart="4.10" from="r11" to="r7"/>
    <trip id="42" depart="4.20" from="e7" to="e3"/>
    <trip id="43" depart="4.30" from="r9" to="r1"/>
    <trip id="44" depart="4.40" from="e11" to="e10"/>
    <trip id="45" depart="4.50" from="e11" to="r12"/>
    <trip id="46" depart="4.60" from="r5" to="e8"/>
    <trip id="47" depart="4.70" from="e10" to="e7"/>
    <trip id="48" depart="4.80" from="r9" to="r1"/>
    <trip id="49" depart="4.90" from="r9" to="r6"/>
    <trip id="50" depart="5.00" from="e1" to="r3"/>
    <trip id="51" depart="5.10" from="r2" to="r1"/>
    <trip id="52" depart="5.20" from="e4" to="r12"/>
    <trip id="53" depart="5.30" from="e11" to="e8"/>
    <trip id="54" depart="5.40" from="e8" to="r8"/>
    <trip id="55" depart="5.50" from="r7" to="e4"/>
    <trip id="56" depart="5.60" from="r1" to="e2"/>
    <trip id="57" depart="5.70" from="r7" to="r6"/>
    <trip id="58" depart="5.80" from="e5" to="r12"/>
    <trip id="59" depart="5.90" from="r11" to="e12"/>
    <trip id="60" depart="6.00" from="r4" to="r1"/>
    <trip id="61" depart="6.10" from="r4" to="r1"/>
    <trip id="62" depart="6.20" from="e1" to="e5"/>
    <trip id="63" depart="6.30" from="e1" to="r8"/>
    <trip id="64" depart="6.40" from="r7" to="r5"/>
    <trip id="65" depart="6.50" from="e5" to="e10"/>
    <trip id="66" depart="6.60" from="r7" to="r8"/>
    <trip id="67" depart="6.70" from="e11" to="e9"/>
    <trip id="68" depart="6.80" from="e10" to="r4"/>
    <trip id="69" depart="6.90" from="r4" to="e12"/>
    <trip id="70" depart="7.00" from="e9" to="r10"/>
    <trip id="71" depart="7.10" from="e4" to="r6"/>
    <trip id="72" depart="7.20" from="e8" to="e3"/>
    <trip id="73" depart="7.30" from="r1" to="r3"/>
    <trip id="74" depart="7.40" from="e2" to="e5"/>
    <trip id="75" depart="7.50" from="r9" to="r12"/>
    <trip id="76" depart="7.60" from="e8" to="r1"/>
    <trip id="77" depart="7.70" from="e11" to="e3"/>
    <trip id="78" depart="7.80" from="e6" to="r11"/>
    <trip id="79" depart="7.90" from="e3" to="e3"/>
    <trip id="80" depart="8.00" from="e10" to="r12"/>
    <trip id="81" depart="8.10" from="e3" to="r7"/>
    <trip id="82" depart="8.20" from="r6" to="e10"/>
    <trip id="83" depart="8.30" from="e3" to="r2"/>
    <trip id="84" depart="8.40" from="e3" to="e12"/>
    <trip id="85" depart="8.50" from="r8" to="r10"/>
    <trip id="86" depart="8.60" from="e9" to="r4"/>
    <trip id="87" depart="8.70" from="r5" to="e2"/>
    <trip id="88" depart="8.80" from="e11" to="e8"/>
    <trip id="89" depart="8.90" from="e8" to="e9"/>
    <trip id="90" depart="9.00" from="r3" to="r2"/>
    <trip id="91" depart="9.10" from="r9" to="e11"/>
    <trip id="92" depart="9.20" from="e7" to="e6"/>
    <trip id="93" depart="9.30" from="r6" to="e3"/>
    <trip id="94" depart="9.40" from="e2" to="e8"/>
    <trip id="95" depart="9.50" from="e8" to="e4"/>
    <trip id="96" depart="9.60" from="e3" to="r8"/>
    <trip id="97" depart="9.70" from="e8" to="r6"/>
    <trip id="98" depart="9.80" from="r10" to="e10"/>
    <trip id="99" depart="9.90" from="r9" to="r6"/>
    <trip id="100" depart="10.00" from="r9" to="r8"/>
    <trip id="101" depart="10.10" from="r6" to="e12"/>
    <trip id="102" depart="10.20" from="e9" to="e3"/>
    <trip id="103" depart="10.30" from="e7" to="e10"/>
    <trip id="104" depart="10.40" from="e7" to="r9"/>
    <trip id="105" depart="10.50" from="e4" to="r4"/>
    <trip id="106" depart="10.60" from="e8" to="e8"/>
    <trip id="107" depart="10.70" from="r8" to="r9"/>
    <trip id="108" depart="10.80" from="r10" to="r3"/>
    <trip id="109" depart="10.90" from="e12" to="e5"/>
    <trip id="110" depart="11.00" from="r9" to="r10"/>
    <trip id="111" depart="11.10" from="r10" to="r3"/>
    <trip id="112" depart="11.20" from="e10" to="r11"/>
    <trip id="113" depart="11.30" from="r1" to="r6"/>
    <trip id="114" depart="11.40" from="e12" to="r9"/>
    <trip id="115" depart="11.50" from="e10" to="e2"/>
    <trip id="116" depart="11.60" from="r11" to="r2"/>
    <trip id="117" depart="11.70" from="e3" to="e11"/>
    <trip id="118" depart="11.80" from="r7" to="e3"/>
    <trip id="119" depart="11.90" from="r11" to="r11"/>
    <trip id="120" depart="12.00" from="e8" to="r11"/>
    <trip id="121" depart="12.10" from="r1" to="r8"/>
    <trip id="122" depart="12.20" from="e2" to="r3"/>
    <trip id="123" depart="12.30" from="e3" to="e7"/>
    <trip id="124" depart="12.40" from="r2" to="e5"/>
    <trip id="125" depart="12.50" from="e5" to="r4"/>
    <trip id="126" depart="12.60" from="e10" to="e8"/>
    <trip id="127" depart="12.70" from="r9" to="r9"/>
    <trip id="128" depart="12.80" from="e10" to="e3"/>
    <trip id="129" depart="12.90" from="e4" to="r8"/>
    <trip id="130" depart="13.00" from="r7" to="r7"/>
    <trip id="131" depart="13.10" from="e6" to="e12"/>
    <trip id="132" depart="13.20" from="r6" to="r2"/>
    <trip id="133" depart="13.30" from="r11" to="r9"/>
    <trip id="134" depart="13.40" from="r12" to="e1"/>
    <trip id="135" depart="13.50" from="r5" to="e5"/>
    <trip id="136" depart="13.60" from="r12" to="r8"/>
    <trip id="137" depart="13.70" from="e12" to="e11"/>
    <trip id="138" depart="13.80" from="e11" to="r10"/>
    <trip id="139" depart="13.90" from="e4" to="r11"/>
    <trip id="140" depart="14.00" from="r3" to="e2"/>
    <trip id="141" depart="14.10" from="r12" to="e4"/>
    <trip id="142" depart="14.20" from="e9" to="r7"/>
    <trip id="143" depart="14.30" from="r6" to="e11"/>
    <trip id="144" depart="14.40" from="e8" to="e4"/>
    <trip id="145" depart="14.50" from="e1" to="r4"/>
    <trip id="146" depart="14.60" from="r12" to="e4"/>
    <trip id="147" depart="14.70" from="r3" to="r10"/>
    <trip id="148" depart="14.80" from="e8" to="e1"/>
    <trip id="149" depart="14.90" from="e10" to="r7"/>
    <trip id="150" depart="15.00" from="r7" to="r10"/>
</routes>
