# Example simulation for integrating veins (http://veins.car2x.org/) with Simu5G
# 
# Requirements:
#       You need to enable the feature "Simu5G Cars" for this simulation
#       (Project->Properties->OMNeT++->Project Features)
#
#       You need to import the "veins" project and its subproject
#       "veins_inet" in your workspace.
[General]
cmdenv-express-mode = true
#record-eventlog = true  # 事件记录
cmdenv-autoflush = true
image-path = ../../images
network = Highway

##########################################################
#            Simulation parameters                       #
##########################################################
debug-on-errors = true
print-undisposed = false

sim-time-limit = 500s

**.sctp.**.scalar-recording = false
**.sctp.**.vector-recording = false
**.routingRecorder.enabled = false

*.playgroundSizeX = 20000m
*.playgroundSizeY = 20000m
*.playgroundSizeZ = 50m

##########################################################
#            VeinsManager parameters                     #
##########################################################
*.veinsManager.host = "localhost"       # if traci-launchd runs on localhost
*.veinsManager.moduleType = "simu5g.nodes.cars.NRCar"
*.veinsManager.moduleName = "car"
*.veinsManager.launchConfig = xmldoc("heterogeneous.launchd.xml")
*.veinsManager.updateInterval = 0.1s

##########################################################
#                      Mobility                          #
##########################################################
*.car[*].mobilityType = "VeinsInetMobility"


##########################################################
#              LTE specific parameters                   #
##########################################################

# Number of Resource Blocks
**.numBands = 50  # 25

# Transmission Power
**.d2dTxPower = 400  # d2d send power ,use in multicast car to car
**.ueTxPower = 300  # use in uplink
**.eNodeBTxPower = 100  # use in down link
**.d2dModeSelectionType = "D2DModeSelectionBestCqi" # new
**.fading = false # new  this should be true
**.shadowing = false # new


# Enable dynamic association of UEs (based on best SINR)
*.car[*].cellularNic.nrPhy.dynamicCellAssociation = true
*.car[*].masterId = 0     	# ignored if dynamic association is disabled
*.car[*].macCellId = 0    	# ignored if dynamic association is disabled
*.car[*].nrMasterId = 1     # ignored if dynamic association is disabled
*.car[*].nrMacCellId = 1    # ignored if dynamic association is disabled

# eNodeB configuration
**.gNodeB1.macCellId = 1
**.gNodeB1.macNodeId = 1
**.gNodeB2.macCellId = 2
**.gNodeB2.macNodeId = 2 


# Enable handover
*.car[*].cellularNic.nrPhy.enableHandover = true  # true
*.gNodeB*.cellularNic.phy.enableHandover = true # changed
*.gNodeB*.cellularNic.phy.handoverLatency = 50ms
*.gNodeB*.cellInfo.broadcastMessageInterval = 1s # eNB will sends broadcast triggers every second

# X2 and SCTP configuration
*.gNodeB*.numX2Apps = 1    # one x2App per peering eNodeB
*.gNodeB*.x2App[*].server.localPort = 5000 + ancestorIndex(1) # Server ports (x2App[0]=5000, x2App[1]=5001, ...)
*.gNodeB1.x2App[0].client.connectAddress = "gNodeB2%x2ppp0" 
*.gNodeB2.x2App[0].client.connectAddress = "gNodeB1%x2ppp0" 
**.sctp.nagleEnabled = false         # if true, transmission of small packets will be delayed on the X2
**.sctp.enableHeartbeats = false


**.channelControl.alpha = 2.75  # path loss



# ----------------------------------------------------------------------------- #
[Config ASTI-TRIM]


### Enable D2D for the eNodeB and the UEs involved in direct communications ###

**.amcMode = "D2D"
#**.rbAllocationType = "distributed" # 如果有需要设置资源分配方式为分布式（distributed），默认为集中式（localized）
*.car[*].cellularNic.d2dInitialMode = true  # 如果不添加这行配置，在实现上行和下行的能力后，车到车之间的单播无法发送，但组播不受影响。
**.arp.typename = "GlobalArp"

**.harqProcesses = 10
**.maxHarqRtx = 5
**.harqFbEvaluationTimer = 6


### Select CQI for D2D transmissions ###
# One-to-Many communications work with fixed CQI values only.
# Set the parameter **.usePreconfiguredTxParams and select the desired CQI using the parameter **.d2dCqi
**.enableD2DCqiReporting = false
**.usePreconfiguredTxParams = true
**.d2dCqi = ${cqi=7}



*.car[*].numApps = 1
*.car[*].app[0].typename = "baseline_aoi.ApplicationApp"


**.bandwidth = 2.4GHz
**.bitrate = 10Mbps

