<?xml version="1.0" encoding="UTF-8"?>
<!-- generated on 2022-08-01 01:21:05.138181 by $Id$ v1.8.0-0000000000
  options: -n highway.net.xml <doubleminus>intermediate 7 -b 0 -e 60 -p 0.1 -o highway.trips.xml
-->
<routes xmlns:xsi="http://www.w3.org/2001/XMLSchema-instance" xsi:noNamespaceSchemaLocation="http://sumo.dlr.de/xsd/routes_file.xsd">
    <trip id="0" depart="0.00" from="r12" to="e8" via="e1 e4 e3 r3 r2 r7 e11" />
    <trip id="1" depart="0.10" from="e1" to="r11" via="e3 r1 e1 e2 r12 r10 e3" />
    <trip id="2" depart="0.20" from="r5" to="e11" via="e1 r5 r2 e6 e12 r8 e6" />
    <trip id="3" depart="0.30" from="e11" to="r10" via="r6 r11 r5 r3 r1 r9 e7" />
    <trip id="4" depart="0.40" from="r5" to="e10" via="r11 r6 r10 r2 e10 e3 e4" />
    <trip id="5" depart="0.50" from="e3" to="r8" via="e11 e4 r12 e6 e6 e3 e4" />
    <trip id="6" depart="0.60" from="r12" to="r10" via="r11 e2 r3 e12 e7 r9 r12" />
    <trip id="7" depart="0.70" from="r2" to="r8" via="r6 r4 e3 e1 e5 e4 e3" />
    <trip id="8" depart="0.80" from="r7" to="r10" via="e5 r12 e7 r7 e9 e4 e3" />
    <trip id="9" depart="0.90" from="e4" to="e10" via="r11 r7 e7 e3 r9 r1 e11" />
    <trip id="10" depart="1.00" from="e11" to="r9" via="r12 r5 e8 e10 e7 r9 r1" />
    <trip id="11" depart="1.10" from="r6" to="e8" via="e1 r3 r2 r1 e4 r12 e11" />
    <trip id="12" depart="1.20" from="e8" to="e5" via="r8 r7 e4 r1 e2 r7 r6" />
    <trip id="13" depart="1.30" from="r12" to="e5" via="r11 e12 r4 r1 r4 r1 e1" />
    <trip id="14" depart="1.40" from="e1" to="e11" via="r8 r7 r5 e5 e10 r7 r8" />
    <trip id="15" depart="1.50" from="e9" to="r6" via="e10 r4 r4 e12 e9 r10 e4" />
    <trip id="16" depart="1.60" from="e8" to="e8" via="e3 r1 r3 e2 e5 r9 r12" />
    <trip id="17" depart="1.70" from="r1" to="r12" via="e11 e3 e6 r11 e3 e3 e10" />
    <trip id="18" depart="1.80" from="e3" to="r8" via="r7 r6 e10 e3 r2 e3 e12" />
    <trip id="19" depart="1.90" from="r10" to="e9" via="e9 r4 r5 e2 e11 e8 e8" />
    <trip id="20" depart="2.00" from="r3" to="e2" via="r2 r9 e11 e7 e6 r6 e3" />
    <trip id="21" depart="2.10" from="e8" to="e10" via="e8 e4 e3 r8 e8 r6 r10" />
    <trip id="22" depart="2.20" from="r9" to="e7" via="r6 r9 r8 r6 e12 e9 e3" />
    <trip id="23" depart="2.30" from="e10" to="r9" via="e7 r9 e4 r4 e8 e8 r8" />
    <trip id="24" depart="2.40" from="r10" to="e10" via="r3 e12 e5 r9 r10 r10 r3" />
    <trip id="25" depart="2.50" from="r11" to="r2" via="r1 r6 e12 r9 e10 e2 r11" />
    <trip id="26" depart="2.60" from="e3" to="r1" via="e11 r7 e3 r11 r11 e8 r11" />
    <trip id="27" depart="2.70" from="r8" to="r4" via="e2 r3 e3 e7 r2 e5 e5" />
    <trip id="28" depart="2.80" from="e10" to="r7" via="e8 r9 r9 e10 e3 e4 r8" />
    <trip id="29" depart="2.90" from="r7" to="e1" via="e6 e12 r6 r2 r11 r9 r12" />
    <trip id="30" depart="3.00" from="r5" to="e4" via="e5 r12 r8 e12 e11 e11 r10" />
    <trip id="31" depart="3.10" from="r11" to="e11" via="r3 e2 r12 e4 e9 r7 r6" />
    <trip id="32" depart="3.20" from="e8" to="e8" via="e4 e1 r4 r12 e4 r3 r10" />
    <trip id="33" depart="3.30" from="e1" to="e12" via="e10 r7 r7 r10 r6 r10 e12" />
    <trip id="34" depart="3.40" from="e5" to="r4" via="r7 r5 r6 r7 e3 e3 e11" />
    <trip id="35" depart="3.50" from="r7" to="r7" via="e7 r11 e12 r8 r6 r9 r5" />
    <trip id="36" depart="3.60" from="e1" to="r4" via="r3 e5 r8 r5 r6 r5 e4" />
    <trip id="37" depart="3.70" from="e11" to="e3" via="r6 r6 e3 r5 e9 e5 r5" />
    <trip id="38" depart="3.80" from="e1" to="r9" via="e2 e5 r6 r9 e4 r12 e7" />
    <trip id="39" depart="3.90" from="r1" to="e8" via="r8 e11 r9 e2 r9 e4 e11" />
    <trip id="40" depart="4.00" from="r3" to="e1" via="e5 r11 r1 e7 r10 e4 r3" />
    <trip id="41" depart="4.10" from="r8" to="e5" via="r1 r3 r3 r2 e6 e10 r12" />
    <trip id="42" depart="4.20" from="e5" to="e12" via="r6 r3 e5 e5 e7 e7 e5" />
    <trip id="43" depart="4.30" from="e8" to="e4" via="r8 r2 r7 r11 e5 r10 e1" />
    <trip id="44" depart="4.40" from="e8" to="r5" via="r10 r12 e9 e8 e3 e9 r7" />
    <trip id="45" depart="4.50" from="e2" to="e3" via="e11 r1 r12 e6 r5 r4 r2" />
    <trip id="46" depart="4.60" from="e2" to="e2" via="e1 e3 e9 r6 e10 e7 r12" />
    <trip id="47" depart="4.70" from="r2" to="e8" via="e9 e3 r12 e1 r4 r4 e11" />
    <trip id="48" depart="4.80" from="e2" to="r2" via="r8 r1 e10 e3 r6 e8 r5" />
    <trip id="49" depart="4.90" from="r9" to="r10" via="r11 r8 r7 r11 r3 r1 r5" />
    <trip id="50" depart="5.00" from="r7" to="r12" via="r3 e9 e4 e3 r12 r4 r1" />
    <trip id="51" depart="5.10" from="e4" to="r2" via="e10 e4 e4 e5 r1 e12 e3" />
    <trip id="52" depart="5.20" from="r2" to="r11" via="e10 e7 r10 e7 e2 e8 r7" />
    <trip id="53" depart="5.30" from="r2" to="r8" via="r6 r4 e7 e1 e6 r4 r6" />
    <trip id="54" depart="5.40" from="e8" to="e6" via="r3 r10 r11 e3 e3 e8 e1" />
    <trip id="55" depart="5.50" from="r2" to="r10" via="e7 e12 e9 e12 r11 e1 e7" />
    <trip id="56" depart="5.60" from="e1" to="r4" via="r12 e12 e9 e10 e7 e3 e5" />
    <trip id="57" depart="5.70" from="e7" to="e6" via="r4 r5 e4 e10 e1 r1 r9" />
    <trip id="58" depart="5.80" from="r12" to="e12" via="r4 r12 r4 r8 e2 e1 e12" />
    <trip id="59" depart="5.90" from="r2" to="e11" via="r10 e3 r2 r4 e2 r11 r3" />
    <trip id="60" depart="6.00" from="r5" to="r3" via="r9 e11 e1 e5 r2 r8 e7" />
    <trip id="61" depart="6.10" from="e10" to="r9" via="r2 r12 e11 r4 r6 r11 e11" />
    <trip id="62" depart="6.20" from="r4" to="e11" via="e6 e8 e6 r1 e6 r6 r5" />
    <trip id="63" depart="6.30" from="r9" to="r5" via="r12 r5 r2 e8 r3 r9 e4" />
    <trip id="64" depart="6.40" from="r1" to="r7" via="e9 e8 r3 e4 r6 r5 e11" />
    <trip id="65" depart="6.50" from="e3" to="r5" via="e9 r11 e7 e1 r6 e2 e3" />
    <trip id="66" depart="6.60" from="e6" to="e9" via="r7 r2 e4 e1 r8 e11 r3" />
    <trip id="67" depart="6.70" from="r4" to="e5" via="r2 r12 e9 r5 e11 e3 r2" />
    <trip id="68" depart="6.80" from="r10" to="e4" via="e9 r1 e8 r3 e5 r2 e4" />
    <trip id="69" depart="6.90" from="e11" to="r3" via="e2 e11 r1 r4 e2 e3 e9" />
    <trip id="70" depart="7.00" from="r9" to="r1" via="r1 e4 e11 e2 e3 e2 e1" />
    <trip id="71" depart="7.10" from="e4" to="r10" via="r9 r10 r2 e12 r6 e9 r6" />
    <trip id="72" depart="7.20" from="e9" to="e10" via="e8 e2 e10 r8 e9 r5 e7" />
    <trip id="73" depart="7.30" from="r12" to="r11" via="e10 e12 r10 e5 r9 e11 r4" />
    <trip id="74" depart="7.40" from="r4" to="r11" via="e3 r1 e8 e8 r6 r9 e5" />
    <trip id="75" depart="7.50" from="r11" to="e10" via="r3 r8 e2 e3 r12 e12 e2" />
    <trip id="76" depart="7.60" from="e1" to="r2" via="e8 r11 e4 e3 r2 r2 e8" />
    <trip id="77" depart="7.70" from="r8" to="r7" via="r4 r12 r12 r8 e8 r10 r12" />
    <trip id="78" depart="7.80" from="r5" to="r2" via="e10 e12 e5 r3 r10 e4 e11" />
    <trip id="79" depart="7.90" from="r2" to="e4" via="r8 r1 e9 e10 e1 e8 e5" />
    <trip id="80" depart="8.00" from="e11" to="e1" via="r9 r6 r10 r8 r9 r2 e4" />
    <trip id="81" depart="8.10" from="r4" to="e11" via="e9 r12 r7 e2 r11 r12 e9" />
    <trip id="82" depart="8.20" from="e6" to="r5" via="e5 r2 r6 e5 r2 e4 r8" />
    <trip id="83" depart="8.30" from="r10" to="r12" via="e8 e5 e5 r9 e7 r1 r9" />
    <trip id="84" depart="8.40" from="r10" to="r10" via="e7 e2 e6 r4 r12 r4 e2" />
    <trip id="85" depart="8.50" from="r8" to="r10" via="e8 r2 e11 r9 r11 e3 e12" />
    <trip id="86" depart="8.60" from="r10" to="r3" via="e11 r9 r7 e9 e11 r5 e9" />
    <trip id="87" depart="8.70" from="r1" to="r1" via="e4 r6 r9 e3 r10 e7 r8" />
    <trip id="88" depart="8.80" from="r7" to="e4" via="r6 e4 r4 e7 r8 r1 r5" />
    <trip id="89" depart="8.90" from="e5" to="r10" via="r11 r9 e9 e12 r1 e6 r10" />
    <trip id="90" depart="9.00" from="e8" to="r3" via="e5 e2 r2 r10 e3 r4 e10" />
    <trip id="91" depart="9.10" from="r2" to="r1" via="r5 e7 r12 r5 r9 e9 e1" />
    <trip id="92" depart="9.20" from="r11" to="r12" via="r6 r6 e8 r1 e8 r3 e7" />
    <trip id="93" depart="9.30" from="e12" to="r6" via="e9 r9 e6 r2 r12 r6 r6" />
    <trip id="94" depart="9.40" from="e7" to="r8" via="e5 r3 r4 r6 e1 e10 r12" />
    <trip id="95" depart="9.50" from="r9" to="r7" via="r3 e8 e11 r12 r6 e8 r2" />
    <trip id="96" depart="9.60" from="e10" to="e2" via="r5 e5 e6 e12 r1 r10 r5" />
    <trip id="97" depart="9.70" from="e10" to="e4" via="r6 r11 e3 r7 e12 e9 e4" />
    <trip id="98" depart="9.80" from="e1" to="r12" via="r5 r7 r2 e12 e8 e6 r11" />
    <trip id="99" depart="9.90" from="e8" to="r10" via="e4 r6 e2 e7 e9 e3 r10" />
    <trip id="100" depart="10.00" from="r9" to="e10" via="e5 r9 r12 e4 r10 r2 r3" />
    <trip id="101" depart="10.10" from="r11" to="r11" via="e9 r7 e4 r5 r11 e6 r12" />
    <trip id="102" depart="10.20" from="r2" to="e8" via="r3 r12 r6 r12 r7 r12 e5" />
    <trip id="103" depart="10.30" from="r10" to="r9" via="r3 e11 e5 r3 e2 e12 r1" />
    <trip id="104" depart="10.40" from="r1" to="e6" via="r7 r5 e4 r5 e9 r5 r3" />
    <trip id="105" depart="10.50" from="e11" to="r5" via="r9 e12 r9 r6 r3 r9 r9" />
    <trip id="106" depart="10.60" from="e6" to="r5" via="r4 e1 r1 e8 r2 r2 r11" />
    <trip id="107" depart="10.70" from="r8" to="e10" via="e11 e3 e1 r7 r10 r7 e3" />
    <trip id="108" depart="10.80" from="r5" to="e11" via="r7 e5 e7 e12 r8 e5 e9" />
    <trip id="109" depart="10.90" from="r7" to="e12" via="e12 e8 r2 r3 r8 e8 r3" />
    <trip id="110" depart="11.00" from="e7" to="r8" via="e11 e9 e7 r8 e1 e6 e8" />
    <trip id="111" depart="11.10" from="r6" to="e11" via="e11 r2 r10 r9 e6 e7 e2" />
    <trip id="112" depart="11.20" from="r6" to="e12" via="e8 r12 r12 r11 e1 r4 e3" />
    <trip id="113" depart="11.30" from="r10" to="r7" via="e10 r4 e2 e3 r6 e5 e12" />
    <trip id="114" depart="11.40" from="e1" to="e1" via="r6 e12 e12 e4 e2 r12 e1" />
    <trip id="115" depart="11.50" from="r4" to="e9" via="e3 e5 e2 e10 r3 r1 r3" />
    <trip id="116" depart="11.60" from="r4" to="r1" via="r1 e11 r1 r8 e10 r4 r6" />
    <trip id="117" depart="11.70" from="e8" to="e10" via="r9 e10 e9 e7 r2 e9 r7" />
    <trip id="118" depart="11.80" from="e10" to="r1" via="r11 e10 e4 r12 r10 e5 r9" />
    <trip id="119" depart="11.90" from="e8" to="e3" via="r11 e11 r2 r6 r12 r4 r3" />
    <trip id="120" depart="12.00" from="e8" to="e6" via="e3 e6 e8 e7 e11 e8 r12" />
    <trip id="121" depart="12.10" from="e12" to="r10" via="r8 e10 r5 e11 e11 r3 r5" />
    <trip id="122" depart="12.20" from="r11" to="r3" via="r10 e5 e11 e6 r12 r4 r6" />
    <trip id="123" depart="12.30" from="r9" to="r6" via="r11 e6 r10 e3 r12 e3 e11" />
    <trip id="124" depart="12.40" from="e6" to="r12" via="r4 r10 r5 r6 r9 r5 r11" />
    <trip id="125" depart="12.50" from="e1" to="e1" via="r8 r5 e4 e2 r2 e5 e6" />
    <trip id="126" depart="12.60" from="r6" to="e8" via="r10 e7 e12 r12 e1 r3 e3" />
    <trip id="127" depart="12.70" from="e6" to="r11" via="e6 r3 r4 r10 e11 e10 e12" />
    <trip id="128" depart="12.80" from="r2" to="e8" via="e4 r12 e9 e8 e4 r4 e11" />
    <trip id="129" depart="12.90" from="e4" to="e5" via="r2 e9 r2 e10 e7 r11 e1" />
    <trip id="130" depart="13.00" from="e3" to="r2" via="e12 e4 e5 e1 r3 e2 e7" />
    <trip id="131" depart="13.10" from="r1" to="r6" via="r6 r5 e10 r6 e10 e1 r8" />
    <trip id="132" depart="13.20" from="r10" to="r11" via="r10 r3 e8 e11 e1 e5 r5" />
    <trip id="133" depart="13.30" from="r5" to="e5" via="r8 e11 r6 e3 r11 r1 e7" />
    <trip id="134" depart="13.40" from="e6" to="r3" via="e5 e2 r1 e11 r1 r7 e6" />
    <trip id="135" depart="13.50" from="r5" to="e2" via="r5 e3 e12 e2 r11 r4 r12" />
    <trip id="136" depart="13.60" from="r4" to="r11" via="e9 r4 r4 e8 r8 r10 r12" />
    <trip id="137" depart="13.70" from="r6" to="r1" via="r12 e12 e10 e8 e5 e4 e10" />
    <trip id="138" depart="13.80" from="e5" to="r1" via="e8 e10 r5 e10 r6 r6 r11" />
    <trip id="139" depart="13.90" from="e9" to="e9" via="r10 r5 r7 e8 r5 r12 e5" />
    <trip id="140" depart="14.00" from="e12" to="e3" via="e10 e11 r7 e6 r3 r1 e2" />
    <trip id="141" depart="14.10" from="e8" to="r11" via="e8 r1 e12 e6 e4 e7 e6" />
    <trip id="142" depart="14.20" from="r4" to="r7" via="r12 e10 e11 r2 e4 r3 r12" />
    <trip id="143" depart="14.30" from="r6" to="r11" via="e6 r10 e12 e6 r9 r2 e7" />
    <trip id="144" depart="14.40" from="r8" to="r2" via="e5 e7 r4 r5 r2 r5 r3" />
    <trip id="145" depart="14.50" from="r1" to="e9" via="r12 e8 e6 e6 e2 e3 r8" />
    <trip id="146" depart="14.60" from="e3" to="e1" via="e12 e10 r6 e11 r4 r6 r7" />
    <trip id="147" depart="14.70" from="e6" to="e12" via="r4 e12 e7 e12 r5 r4 r5" />
    <trip id="148" depart="14.80" from="e8" to="r1" via="e7 r2 e3 e8 e4 r3 e8" />
    <trip id="149" depart="14.90" from="e5" to="e4" via="r5 e9 r6 e6 r8 r9 e9" />
    <trip id="150" depart="15.00" from="e7" to="r6" via="r1 r9 r5 r5 e12 e4 r12" />
    <trip id="151" depart="15.10" from="r10" to="e12" via="e11 r6 r6 e4 r4 e4 r7" />
    <trip id="152" depart="15.20" from="e8" to="e3" via="r8 e3 e8 e6 e1 e10 r1" />
    <trip id="153" depart="15.30" from="r9" to="e4" via="e6 e1 r8 r6 r12 r4 e12" />
    <trip id="154" depart="15.40" from="r5" to="r6" via="r2 e12 r2 e8 e1 e10 e4" />
    <trip id="155" depart="15.50" from="r10" to="r5" via="r3 r1 e11 e4 e5 e10 e8" />
    <trip id="156" depart="15.60" from="e8" to="e8" via="e11 r7 r11 e1 r1 e3 e12" />
    <trip id="157" depart="15.70" from="r11" to="r1" via="e3 e7 r12 e11 r9 e10 r1" />
    <trip id="158" depart="15.80" from="r9" to="r4" via="r10 e7 e9 r12 r9 e4 e1" />
    <trip id="159" depart="15.90" from="e6" to="r5" via="r3 r12 r4 r3 e5 e10 r10" />
    <trip id="160" depart="16.00" from="e2" to="e8" via="r4 e9 r2 r12 r5 e10 r4" />
    <trip id="161" depart="16.10" from="e5" to="e4" via="e10 e2 e10 r8 r1 r9 r10" />
    <trip id="162" depart="16.20" from="r4" to="r7" via="e2 e6 r4 r6 e5 e11 e6" />
    <trip id="163" depart="16.30" from="r3" to="r5" via="r7 e7 r9 e9 e9 r8 r1" />
    <trip id="164" depart="16.40" from="r3" to="e5" via="e10 r11 r5 r10 e5 e10 r12" />
    <trip id="165" depart="16.50" from="r11" to="e4" via="e8 r2 e6 e10 r6 e6 r9" />
    <trip id="166" depart="16.60" from="r9" to="e12" via="r8 e10 r12 e6 r5 r2 r8" />
    <trip id="167" depart="16.70" from="r11" to="r11" via="r4 e1 e10 r4 e6 e7 r10" />
    <trip id="168" depart="16.80" from="r2" to="e3" via="r8 e6 r4 r10 r1 e7 r12" />
    <trip id="169" depart="16.90" from="e11" to="r9" via="r3 e9 e7 r10 e4 e4 e8" />
    <trip id="170" depart="17.00" from="e4" to="e11" via="r7 e9 e11 r6 e8 r7 e8" />
    <trip id="171" depart="17.10" from="r2" to="r3" via="r6 e5 e6 e10 r10 r7 r6" />
    <trip id="172" depart="17.20" from="r8" to="e1" via="r12 r5 r1 e11 e2 e12 r4" />
    <trip id="173" depart="17.30" from="r10" to="r3" via="e6 r5 r10 r11 e11 e5 r9" />
    <trip id="174" depart="17.40" from="r1" to="e6" via="r4 r5 e10 r9 r12 e8 r2" />
    <trip id="175" depart="17.50" from="r7" to="e11" via="r4 r12 e2 r9 e8 r7 e10" />
    <trip id="176" depart="17.60" from="e12" to="e4" via="e12 e5 r3 e6 r8 r7 r6" />
    <trip id="177" depart="17.70" from="r12" to="e12" via="r10 e12 e5 r1 r1 e2 r8" />
    <trip id="178" depart="17.80" from="r12" to="r12" via="r3 r11 r6 r10 r5 e1 e10" />
    <trip id="179" depart="17.90" from="r10" to="r8" via="r12 r4 e7 r12 e9 r12 e4" />
    <trip id="180" depart="18.00" from="e9" to="e2" via="r5 r2 e5 e10 e10 e8 e9" />
    <trip id="181" depart="18.10" from="r11" to="r10" via="e5 r3 r3 r6 r9 e12 e6" />
    <trip id="182" depart="18.20" from="e5" to="e3" via="e9 e4 e3 e11 e4 e7 r11" />
    <trip id="183" depart="18.30" from="r6" to="e9" via="e12 e5 r10 e5 r4 e9 r1" />
    <trip id="184" depart="18.40" from="e5" to="e9" via="e1 r8 r1 r9 e3 e6 e10" />
    <trip id="185" depart="18.50" from="r7" to="r4" via="r12 e9 r1 r6 e8 r7 r3" />
    <trip id="186" depart="18.60" from="e6" to="e4" via="e7 r10 e2 r10 e10 r1 r4" />
    <trip id="187" depart="18.70" from="r9" to="r4" via="r2 e11 r9 e7 r5 e6 r8" />
    <trip id="188" depart="18.80" from="e2" to="r11" via="r1 r1 e10 e12 e5 e9 e8" />
    <trip id="189" depart="18.90" from="r1" to="r5" via="e5 r11 e12 r9 r3 e5 e6" />
    <trip id="190" depart="19.00" from="r1" to="r5" via="r3 e5 r5 e6 r2 r9 r11" />
    <trip id="191" depart="19.10" from="r3" to="r3" via="r2 e1 e9 r9 r4 r4 r10" />
    <trip id="192" depart="19.20" from="r11" to="r8" via="e2 r12 r11 r6 e12 r2 e1" />
    <trip id="193" depart="19.30" from="e11" to="r6" via="e1 e5 e12 r2 e7 r4 r8" />
    <trip id="194" depart="19.40" from="r3" to="e2" via="e10 e12 e2 e5 r12 r1 e5" />
    <trip id="195" depart="19.50" from="r7" to="e2" via="e6 e6 r4 r3 r12 r2 r11" />
    <trip id="196" depart="19.60" from="e3" to="e5" via="r10 e3 r9 e5 e4 e2 r2" />
    <trip id="197" depart="19.70" from="e6" to="r5" via="r8 r5 e4 e11 r2 e7 r9" />
    <trip id="198" depart="19.80" from="r8" to="e9" via="r5 e4 e4 r3 e6 e8 e4" />
    <trip id="199" depart="19.90" from="e2" to="r2" via="r1 r8 r2 e12 r11 r11 e3" />
    <trip id="200" depart="20.00" from="r1" to="r10" via="r12 e10 e7 r3 e11 r4 e1" />
    <trip id="201" depart="20.10" from="r8" to="r12" via="e7 r8 r7 e9 e2 r9 e5" />
    <trip id="202" depart="20.20" from="r7" to="r7" via="e11 r10 r1 r3 r8 r7 e2" />
    <trip id="203" depart="20.30" from="e2" to="r7" via="r8 r9 e7 e9 r8 r9 r8" />
    <trip id="204" depart="20.40" from="e1" to="r8" via="r10 e11 r9 e4 r9 r10 e9" />
    <trip id="205" depart="20.50" from="r6" to="r3" via="e9 e2 e11 e12 e9 e4 e2" />
    <trip id="206" depart="20.60" from="r4" to="e11" via="r10 r4 e2 r6 r7 r5 r1" />
    <trip id="207" depart="20.70" from="r2" to="r8" via="e2 e12 e5 e3 e4 e3 r4" />
    <trip id="208" depart="20.80" from="e5" to="e7" via="r3 e1 r12 r2 e10 e11 e5" />
    <trip id="209" depart="20.90" from="r1" to="e3" via="r7 r2 e5 e11 r7 e5 r11" />
    <trip id="210" depart="21.00" from="e12" to="r12" via="e12 r3 r11 e7 r10 e9 r1" />
    <trip id="211" depart="21.10" from="e3" to="r10" via="e3 r4 r6 e10 e8 r2 e10" />
    <trip id="212" depart="21.20" from="e10" to="e2" via="r10 r1 r10 e12 e5 r1 e11" />
    <trip id="213" depart="21.30" from="r10" to="e9" via="e11 r1 r5 e8 r1 e8 e10" />
    <trip id="214" depart="21.40" from="r5" to="e10" via="r3 e7 r5 r3 r10 e10 e6" />
    <trip id="215" depart="21.50" from="r9" to="r9" via="r8 e10 r8 e1 e7 r4 r4" />
    <trip id="216" depart="21.60" from="r12" to="r12" via="e8 r9 e7 r6 r7 e7 r2" />
    <trip id="217" depart="21.70" from="r1" to="e1" via="r12 e6 e2 r1 r1 r3 e3" />
    <trip id="218" depart="21.80" from="e1" to="e4" via="e5 r2 r10 r1 r5 e3 e6" />
    <trip id="219" depart="21.90" from="r8" to="e2" via="r3 e11 r5 e8 r4 r7 e1" />
    <trip id="220" depart="22.00" from="e11" to="e3" via="e1 r11 r2 e10 r3 e7 e3" />
    <trip id="221" depart="22.10" from="r6" to="r2" via="e10 r1 e4 r5 r3 e5 r11" />
    <trip id="222" depart="22.20" from="e5" to="r7" via="e5 e12 r12 e3 e5 e10 r8" />
    <trip id="223" depart="22.30" from="r7" to="e5" via="r12 e8 e9 r9 r8 r2 r4" />
    <trip id="224" depart="22.40" from="e7" to="r5" via="e12 e7 r4 e9 r6 e5 r2" />
    <trip id="225" depart="22.50" from="r7" to="r8" via="r10 r9 r10 e12 e3 e2 r12" />
    <trip id="226" depart="22.60" from="r6" to="e2" via="e11 r3 e2 e4 r2 r11 r6" />
    <trip id="227" depart="22.70" from="r4" to="r8" via="r3 r10 e9 r6 e5 r8 e1" />
    <trip id="228" depart="22.80" from="r9" to="r10" via="e11 r9 e9 e3 r11 e2 r7" />
    <trip id="229" depart="22.90" from="r4" to="r9" via="e7 r1 e6 e4 r1 e9 e11" />
    <trip id="230" depart="23.00" from="e9" to="e4" via="r6 r7 e6 e7 r10 e3 e12" />
    <trip id="231" depart="23.10" from="r8" to="r12" via="r10 e8 e12 e5 e7 r6 e9" />
    <trip id="232" depart="23.20" from="r2" to="e2" via="e4 r5 r9 r12 e9 e2 r5" />
    <trip id="233" depart="23.30" from="r3" to="r8" via="e9 r8 r10 r12 e10 e1 r6" />
    <trip id="234" depart="23.40" from="r2" to="e6" via="r4 e7 r6 e3 r2 e1 r1" />
    <trip id="235" depart="23.50" from="r11" to="r1" via="r2 r11 e9 e9 e1 r10 e1" />
    <trip id="236" depart="23.60" from="e4" to="e11" via="r9 e1 r5 r2 r5 r7 e11" />
    <trip id="237" depart="23.70" from="e12" to="r10" via="e2 r1 r5 e4 e7 e6 e7" />
    <trip id="238" depart="23.80" from="r9" to="e7" via="e3 r2 r6 r12 r6 r4 e11" />
    <trip id="239" depart="23.90" from="r10" to="r6" via="e10 e1 e2 e9 e8 r4 r10" />
    <trip id="240" depart="24.00" from="e11" to="e10" via="r1 e10 e3 r6 r7 e9 e10" />
    <trip id="241" depart="24.10" from="r8" to="r4" via="r7 r10 e1 r8 e5 r9 r11" />
    <trip id="242" depart="24.20" from="r3" to="e5" via="e7 e10 e12 e3 r6 e7 r7" />
    <trip id="243" depart="24.30" from="r4" to="r6" via="e12 r9 r3 r1 r9 e10 e8" />
    <trip id="244" depart="24.40" from="e6" to="e9" via="r4 r8 e7 r4 e1 e4 r9" />
    <trip id="245" depart="24.50" from="e6" to="r3" via="r8 e8 r2 r12 e11 r11 r5" />
    <trip id="246" depart="24.60" from="e10" to="e5" via="e12 r3 r12 r3 e5 e11 e1" />
    <trip id="247" depart="24.70" from="e6" to="e6" via="e4 e12 e2 e8 r10 e7 e1" />
    <trip id="248" depart="24.80" from="e11" to="r7" via="r11 e5 e7 e5 e7 e11 r7" />
    <trip id="249" depart="24.90" from="r9" to="e8" via="r10 e2 e7 e12 e5 e9 e10" />
    <trip id="250" depart="25.00" from="e8" to="e11" via="e9 e10 e4 e3 r12 r11 e2" />
    <trip id="251" depart="25.10" from="e5" to="r6" via="r8 e5 r11 r5 e5 e6 r5" />
    <trip id="252" depart="25.20" from="r9" to="e4" via="e12 e5 r8 e2 e5 r9 r9" />
    <trip id="253" depart="25.30" from="r2" to="r10" via="e9 r10 e3 e7 r5 e7 e11" />
    <trip id="254" depart="25.40" from="r11" to="e4" via="r10 r2 r10 r8 e9 r3 e8" />
    <trip id="255" depart="25.50" from="r2" to="r3" via="r5 r5 e7 e9 r12 e3 r12" />
    <trip id="256" depart="25.60" from="r4" to="r10" via="e10 r9 e9 e7 r1 r8 r2" />
    <trip id="257" depart="25.70" from="r4" to="e6" via="e6 r7 r1 r12 e11 r4 r12" />
    <trip id="258" depart="25.80" from="r12" to="e1" via="e10 r9 r2 e7 r4 r9 e8" />
    <trip id="259" depart="25.90" from="e4" to="r11" via="r1 r1 r10 r10 e8 e7 r4" />
    <trip id="260" depart="26.00" from="r1" to="e12" via="e6 e1 e11 e7 r9 e11 r8" />
    <trip id="261" depart="26.10" from="e5" to="e5" via="e8 e2 e9 e9 e8 r2 e5" />
    <trip id="262" depart="26.20" from="r5" to="e2" via="e11 r6 r12 r2 e12 r9 e3" />
    <trip id="263" depart="26.30" from="e12" to="e1" via="r10 r9 e3 e7 e2 r12 e8" />
    <trip id="264" depart="26.40" from="r11" to="e10" via="e2 r11 e7 r2 e2 r4 r5" />
    <trip id="265" depart="26.50" from="e11" to="r12" via="r6 e2 e5 e8 e4 r6 r1" />
    <trip id="266" depart="26.60" from="r11" to="e5" via="r11 r11 e6 r6 r11 r5 r2" />
    <trip id="267" depart="26.70" from="r11" to="e8" via="e11 e12 e11 e5 e2 r2 r1" />
    <trip id="268" depart="26.80" from="e12" to="e9" via="e7 e2 r12 r2 r12 r9 r10" />
    <trip id="269" depart="26.90" from="e12" to="r9" via="e5 e8 e10 e6 e1 e12 r5" />
    <trip id="270" depart="27.00" from="r1" to="r4" via="e9 r2 e7 r6 e9 e10 e1" />
    <trip id="271" depart="27.10" from="e5" to="e11" via="e4 r1 e2 e8 r3 r4 r10" />
    <trip id="272" depart="27.20" from="e11" to="r9" via="r4 r5 e6 r5 e1 r3 r10" />
    <trip id="273" depart="27.30" from="e11" to="e8" via="r5 r4 e5 r9 e8 e6 r5" />
    <trip id="274" depart="27.40" from="r9" to="e12" via="r4 e3 r5 r11 e6 r3 r12" />
    <trip id="275" depart="27.50" from="e12" to="r2" via="e2 e2 e10 e6 e4 r1 e5" />
    <trip id="276" depart="27.60" from="e4" to="r8" via="e4 r6 r9 r2 e11 r9 r4" />
    <trip id="277" depart="27.70" from="r9" to="r2" via="r6 e12 r6 e3 r3 r5 r4" />
    <trip id="278" depart="27.80" from="e9" to="r1" via="r10 e4 e7 e8 r12 r7 e11" />
    <trip id="279" depart="27.90" from="e4" to="r3" via="r8 e6 r8 e5 e1 r4 r3" />
    <trip id="280" depart="28.00" from="e9" to="e4" via="r12 e6 e10 r1 e3 e8 e3" />
    <trip id="281" depart="28.10" from="r5" to="e11" via="e6 r10 r10 e9 e6 r2 e10" />
    <trip id="282" depart="28.20" from="r4" to="r2" via="e9 e11 r6 e8 e1 r8 e2" />
    <trip id="283" depart="28.30" from="e12" to="r7" via="r12 e12 r8 e4 r12 e4 e6" />
    <trip id="284" depart="28.40" from="e12" to="e9" via="e7 e5 r2 e3 r12 r2 e1" />
    <trip id="285" depart="28.50" from="e12" to="e12" via="e3 r2 e1 r2 r5 r9 e8" />
    <trip id="286" depart="28.60" from="e10" to="r4" via="e7 r3 e11 e5 r7 e12 r4" />
    <trip id="287" depart="28.70" from="e12" to="r12" via="r9 e12 r1 e1 r12 e8 r3" />
    <trip id="288" depart="28.80" from="e12" to="e7" via="e7 r2 r6 e11 e11 r4 r11" />
    <trip id="289" depart="28.90" from="r9" to="r4" via="e5 e12 e4 e11 r10 r11 r11" />
    <trip id="290" depart="29.00" from="r2" to="e10" via="r6 r12 e5 r1 r1 r3 e5" />
    <trip id="291" depart="29.10" from="r7" to="r9" via="r8 e9 e11 e9 r11 r1 r9" />
    <trip id="292" depart="29.20" from="r8" to="r4" via="e12 r6 r10 e6 r2 r4 r8" />
    <trip id="293" depart="29.30" from="e1" to="r1" via="e10 e4 e1 e10 r4 r1 r12" />
    <trip id="294" depart="29.40" from="e7" to="e2" via="r2 e10 r1 r11 e4 e5 r1" />
    <trip id="295" depart="29.50" from="r5" to="r3" via="r1 e7 r12 r6 r2 e10 r2" />
    <trip id="296" depart="29.60" from="r6" to="r3" via="e10 e11 e8 e8 r11 e5 r3" />
    <trip id="297" depart="29.70" from="e11" to="e2" via="r2 r2 e12 r8 r1 r4 r3" />
    <trip id="298" depart="29.80" from="e12" to="e10" via="r4 e4 r7 r4 e1 r5 e4" />
    <trip id="299" depart="29.90" from="r3" to="e4" via="r10 e10 e8 e6 e9 r10 e6" />
    <trip id="300" depart="30.00" from="e11" to="e9" via="r10 r3 e3 r1 e10 r6 e3" />
    <trip id="301" depart="30.10" from="e7" to="e5" via="e12 r8 r6 r10 r7 r3 e8" />
    <trip id="302" depart="30.20" from="e7" to="r5" via="r3 e4 e10 e6 r1 r7 e2" />
    <trip id="303" depart="30.30" from="r9" to="e1" via="r8 e10 e9 e4 r6 e5 r10" />
    <trip id="304" depart="30.40" from="e2" to="e2" via="r10 e5 r11 e9 r11 e9 r4" />
    <trip id="305" depart="30.50" from="r7" to="r7" via="r4 e3 e1 e7 e3 e6 r6" />
    <trip id="306" depart="30.60" from="r8" to="e9" via="e1 r12 r6 r3 e11 r1 e3" />
    <trip id="307" depart="30.70" from="e10" to="e6" via="r9 r3 e11 r8 r7 r1 r2" />
    <trip id="308" depart="30.80" from="r9" to="r9" via="e11 e11 e12 r5 e10 r10 e8" />
    <trip id="309" depart="30.90" from="e3" to="e10" via="e4 e5 r5 r2 r3 e5 e4" />
    <trip id="310" depart="31.00" from="e2" to="r9" via="r4 r11 e12 e12 e9 e7 r1" />
    <trip id="311" depart="31.10" from="e2" to="e1" via="e5 e4 e11 e12 r2 r5 r2" />
    <trip id="312" depart="31.20" from="r6" to="r9" via="e5 e11 e3 e6 r1 r2 e4" />
    <trip id="313" depart="31.30" from="e1" to="e1" via="e7 e8 r3 e3 e9 r5 e12" />
    <trip id="314" depart="31.40" from="r5" to="e4" via="r9 e12 r5 e6 r12 r12 r10" />
    <trip id="315" depart="31.50" from="r5" to="e5" via="e1 e10 r7 e8 e12 r7 r5" />
    <trip id="316" depart="31.60" from="e10" to="e2" via="e9 e2 r10 r5 e7 e1 r2" />
    <trip id="317" depart="31.70" from="e3" to="e7" via="e2 e4 r7 e1 r11 e3 e5" />
    <trip id="318" depart="31.80" from="r10" to="r5" via="e10 e4 e12 e2 r7 r1 r12" />
    <trip id="319" depart="31.90" from="r5" to="e7" via="r9 r4 e6 r10 e9 r7 r1" />
    <trip id="320" depart="32.00" from="e2" to="r4" via="e5 e3 r7 r4 e10 r9 r1" />
    <trip id="321" depart="32.10" from="r9" to="r9" via="r9 e11 r12 e4 r5 r8 e10" />
    <trip id="322" depart="32.20" from="e3" to="r5" via="r6 r5 e6 r6 r6 e2 r11" />
    <trip id="323" depart="32.30" from="r2" to="r9" via="r7 e1 r2 r8 r10 r10 e2" />
    <trip id="324" depart="32.40" from="r7" to="e1" via="e9 e5 e9 e11 e3 e3 r1" />
    <trip id="325" depart="32.50" from="r8" to="r11" via="e2 e12 r3 r8 r6 e5 e1" />
    <trip id="326" depart="32.60" from="r8" to="e11" via="r4 r6 r6 r9 e6 r8 e7" />
    <trip id="327" depart="32.70" from="e5" to="r9" via="e12 e12 r8 r5 r9 r12 e2" />
    <trip id="328" depart="32.80" from="r2" to="e12" via="r8 r4 e3 r11 e2 e5 r2" />
    <trip id="329" depart="32.90" from="r3" to="r8" via="r8 r8 e7 r9 r9 e1 r11" />
    <trip id="330" depart="33.00" from="r9" to="e2" via="e3 r10 r8 e12 r3 e3 r9" />
    <trip id="331" depart="33.10" from="r7" to="e10" via="e11 r3 r12 r7 e8 e4 e3" />
    <trip id="332" depart="33.20" from="e4" to="e7" via="e11 e1 e7 r3 r9 r7 e9" />
    <trip id="333" depart="33.30" from="r10" to="r6" via="e11 e9 r6 r12 r2 e12 e10" />
    <trip id="334" depart="33.40" from="e5" to="r7" via="e5 r8 e10 e2 e7 r3 r10" />
    <trip id="335" depart="33.50" from="e11" to="e12" via="r11 r11 e9 e1 r8 e12 r7" />
    <trip id="336" depart="33.60" from="e11" to="e3" via="e2 e2 r2 r3 r3 e4 e4" />
    <trip id="337" depart="33.70" from="e10" to="r11" via="r10 r6 e12 e6 e8 e5 r12" />
    <trip id="338" depart="33.80" from="e2" to="e9" via="e1 e2 e5 e10 r6 e5 e7" />
    <trip id="339" depart="33.90" from="r12" to="e9" via="e11 r10 e2 r7 e6 e8 e4" />
    <trip id="340" depart="34.00" from="e3" to="r9" via="e4 e10 r4 r2 e11 e6 r1" />
    <trip id="341" depart="34.10" from="r11" to="r7" via="r10 r6 r5 e8 r1 r6 e9" />
    <trip id="342" depart="34.20" from="e9" to="r11" via="e10 r7 r3 r1 r7 r5 r2" />
    <trip id="343" depart="34.30" from="e11" to="r9" via="r4 e2 r9 r9 r5 e12 e8" />
    <trip id="344" depart="34.40" from="e8" to="e7" via="r9 r12 r6 e4 r7 r7 e10" />
    <trip id="345" depart="34.50" from="e7" to="e8" via="e5 e4 e8 r6 r4 r11 r1" />
    <trip id="346" depart="34.60" from="e7" to="e4" via="e12 r11 r4 r8 r8 r10 e11" />
    <trip id="347" depart="34.70" from="r1" to="e12" via="e6 e7 e7 e9 r11 e1 e4" />
    <trip id="348" depart="34.80" from="r11" to="r7" via="r2 e1 r7 e5 e3 r3 r8" />
    <trip id="349" depart="34.90" from="e1" to="e12" via="r5 e5 e4 e9 r2 e11 r6" />
    <trip id="350" depart="35.00" from="r9" to="r5" via="e8 r5 e4 e8 r12 e2 e3" />
    <trip id="351" depart="35.10" from="r3" to="e12" via="r4 r6 r5 r1 e12 e5 r1" />
    <trip id="352" depart="35.20" from="r6" to="r8" via="r7 e1 e2 r5 r6 e3 e8" />
    <trip id="353" depart="35.30" from="r2" to="r11" via="e4 r5 r1 r12 e11 e1 e6" />