<?xml version="1.0" encoding="UTF-8"?>

<!-- generated on Mon Aug  1 01:21:05 2022 by Eclipse SUMO duarouter Version 1.8.0
<configuration xmlns:xsi="http://www.w3.org/2001/XMLSchema-instance" xsi:noNamespaceSchemaLocation="http://sumo.dlr.de/xsd/duarouterConfiguration.xsd">

    <input>
        <net-file value="highway.net.xml"/>
        <route-files value="highway.trips.xml"/>
    </input>

    <output>
        <output-file value="highway.rou.xml"/>
        <alternatives-output value="highway.rou.alt.xml"/>
    </output>

    <report>
        <ignore-errors value="true"/>
    </report>

</configuration>
-->

<routes xmlns:xsi="http://www.w3.org/2001/XMLSchema-instance" xsi:noNamespaceSchemaLocation="http://sumo.dlr.de/xsd/routes_file.xsd">
    <vehicle id="0" depart="0.00">
        <route edges="r12 r4 r3 r7 e1 e9 e4 r4 r3 e3 r3 e3 e4 r11 r2 r1 e7 r7 e1 e2 e11 r4 r3 e8"/>
    </vehicle>
    <vehicle id="1" depart="0.10">
        <route edges="e1 r1 e7 e3 r9 r1 e7 r7 e1 e2 e11 e12 r6 e6 r12 r4 e10 r10 r3 e3 e4 r11"/>
    </vehicle>
    <vehicle id="2" depart="0.20">
        <route edges="r5 r8 r7 e1 e9 e10 r5 r8 e3 e4 r11 r2 e9 e10 e6 r12 e12 r6 r5 r8 e8 e5 e6 r12 r11 r2 e2 e11"/>
    </vehicle>
    <vehicle id="3" depart="0.30">
        <route edges="e11 e12 r6 e6 r12 r11 r2 e9 e10 r5 r8 e3 r3 e3 r9 r1 e7 e3 r9 r1 e7 e8 e5 r10"/>
    </vehicle>
    <vehicle id="4" depart="0.40">
        <route edges="r5 r8 e3 e4 r11 r2 e9 e4 e12 r6 r10 e4 r11 r2 e9 e10 r10 r3 e3 e4 r4 e10"/>
    </vehicle>
    <vehicle id="5" depart="0.50">
        <route edges="e3 r9 e2 e11 r4 e4 r4 e10 e6 r12 r4 e10 e6 r12 r4 r3 e3 e4 r4 e10 r5 r8"/>
    </vehicle>
    <vehicle id="6" depart="0.60">
        <route edges="r12 r11 r2 e2 e11 r4 r3 e3 e4 e12 r6 r10 r9 r1 e7 e3 r9 e9 e10 e6 r12 r4 e10 r10"/>
    </vehicle>
    <vehicle id="7" depart="0.70">
        <route edges="r2 e9 e4 e12 r6 e6 r12 r4 r3 e3 r3 r7 e1 r1 e7 e8 e5 r10 e4 r4 r3 e3 e10 r5 r8"/>
    </vehicle>
    <vehicle id="8" depart="0.80">
        <route edges="r7 e1 r1 e7 e8 e5 e6 r12 r11 r2 r1 e7 r7 e1 e9 e4 r4 r3 e3 e10 r10"/>
    </vehicle>
    <vehicle id="9" depart="0.90">
        <route edges="e4 r11 r2 r1 e7 r7 e1 r1 e7 e3 r9 r1 e7 e3 r9 e2 e11 r4 e10"/>
    </vehicle>
    <vehicle id="10" depart="1.00">
        <route edges="e11 e12 r6 e6 r12 r4 e10 r5 r8 e8 e5 r10 e10 r10 r9 r1 e7 e3 r9 r1 e7 e3 r9"/>
    </vehicle>
    <vehicle id="11" depart="1.10">
        <route edges="r6 r5 r8 r7 e1 e9 r3 e3 e4 r11 r2 r1 e7 e3 e4 r4 e10 e6 r12 r11 r2 e2 e11 r4 r3 e8"/>
    </vehicle>
    <vehicle id="12" depart="1.20">
        <route edges="e8 e5 r5 r8 r7 e1 e9 e4 r11 r2 r1 e7 e3 r9 e2 e11 r4 r3 r7 e1 e2 e11 e12 r6 r5 r8 e8 e5"/>
    </vehicle>
    <vehicle id="13" depart="1.30">
        <route edges="r12 r11 r2 e9 e4 e12 r6 e6 r12 r4 r9 r1 e7 e3 e4 r4 r9 r1 e7 r7 e1 r1 e7 e8 e5"/>
    </vehicle>
    <vehicle id="14" depart="1.40">
        <route edges="e1 e9 e10 r5 r8 r7 e1 e9 e10 r5 r8 e8 e5 r10 e10 r5 r8 r7 e1 e9 e10 r5 r8 r7 e1 e2 e11"/>
    </vehicle>
    <vehicle id="15" depart="1.50">
        <route edges="e9 e10 e6 r12 r4 e4 e12 r6 r10 r9 e9 e10 r10 e4 e12 r6"/>
    </vehicle>
    <vehicle id="16" depart="1.60">
        <route edges="e8 e5 r10 r3 e3 r9 r1 e7 e3 r3 e3 r9 e2 e11 r4 r3 e8 e5 r10 r9 e9 e10 e6 r12 r4 r3 e8"/>
    </vehicle>
    <vehicle id="17" depart="1.70">
        <route edges="r1 e7 e3 r9 e2 e11 r4 r3 e3 e10 e6 r12 r11 r2 r1 e7 e3 e10 e6 r12"/>
    </vehicle>
    <vehicle id="18" depart="1.80">
        <route edges="e3 r3 r7 e1 e2 e11 e12 r6 r10 e10 r10 r3 e3 e4 r11 r2 r1 e7 e3 e4 e12 r6 r5 r8"/>
    </vehicle>
    <vehicle id="19" depart="1.90">
        <route edges="r10 r9 e9 e4 r4 e10 r5 r8 r7 e1 e2 e11 r4 r3 e8 e5 r10 r9 e9"/>
    </vehicle>
    <vehicle id="20" depart="2.00">
        <route edges="r3 e3 e4 r11 r2 e9 r9 e2 e11 r11 r2 r1 e7 e8 e5 e6 r12 e12 r6 r5 r8 e3 r9 e2"/>
    </vehicle>
    <vehicle id="21" depart="2.10">
        <route edges="e8 e5 r10 e4 r4 r3 e3 e10 r5 r8 e8 e5 e6 r12 e12 r6 r10 e10"/>
    </vehicle>
    <vehicle id="22" depart="2.20">
        <route edges="r9 e2 e11 e12 r6 r10 r9 e9 e10 r5 r8 e3 e4 e12 r6 e6 r12 e12 r6 r10 r9 e9 r3 e3 r9 r1 e7"/>
    </vehicle>
    <vehicle id="23" depart="2.30">
        <route edges="e10 r10 r9 r1 e7 e3 r9 e9 e4 r4 r3 e8 e5 r5 r8 e3 r9"/>
    </vehicle>
    <vehicle id="24" depart="2.40">
        <route edges="r10 r3 e3 e4 e12 r6 r5 r8 e8 e5 r10 r9 e9 e10 r10 r3 e3 e10"/>
    </vehicle>
    <vehicle id="25" depart="2.50">
        <route edges="r11 r2 r1 e7 e3 e4 e12 r6 e6 r12 e12 r6 r10 r9 e9 e10 r10 r9 e2 e11 r11 r2"/>
    </vehicle>
    <vehicle id="26" depart="2.60">
        <route edges="e3 r9 e2 e11 r4 r3 r7 e1 r1 e7 e3 e4 r11 r2 r1 e7 e8 e5 e6 r12 r11 r2 r1"/>
    </vehicle>
    <vehicle id="27" depart="2.70">
        <route edges="r8 r7 e1 e2 e11 r4 r3 e3 r9 r1 e7 e3 e4 r11 r2 r1 e7 e8 e5 e6 r12 r4"/>
    </vehicle>
    <vehicle id="28" depart="2.80">
        <route edges="e10 r10 r3 e8 e5 r10 r9 e9 e10 r10 r3 e3 e4 r4 e10 r5 r8 r7"/>
    </vehicle>
    <vehicle id="29" depart="2.90">
        <route edges="r7 e1 e9 e10 e6 r12 e12 r6 e6 r12 r11 r2 e9 e4 r11 r2 e9 r9 e9 e10 e6 r12 r4 r3 r7 e1"/>
    </vehicle>
    <vehicle id="30" depart="3.00">
        <route edges="r5 r8 e8 e5 e6 r12 r4 e10 r5 r8 e3 e4 e12 r6 r10 r9 e2 e11 r4 e10 r10 e4"/>
    </vehicle>
    <vehicle id="31" depart="3.10">
        <route edges="r11 r2 e9 r3 e3 r9 e2 e11 e12 r6 e6 r12 r4 e4 r11 r2 e9 r3 r7 e1 e2 e11 e12 r6 r10 r9 e2 e11"/>
    </vehicle>
    <vehicle id="32" depart="3.20">
        <route edges="e8 e5 r10 e4 r4 r3 r7 e1 e2 e11 r4 e10 e6 r12 r4 e4 r4 r3 e8 e5 r10 r3 e8"/>
    </vehicle>
    <vehicle id="33" depart="3.30">
        <route edges="e1 e9 e10 r5 r8 r7 e1 e9 e10 r10 e4 e12 r6 r10 e4 e12"/>
    </vehicle>
    <vehicle id="34" depart="3.40">
        <route edges="e5 r10 r3 r7 e1 e9 e10 r5 r8 e3 e4 e12 r6 r5 r8 r7 e1 r1 e7 e3 r9 e2 e11 r4"/>
    </vehicle>
    <vehicle id="35" depart="3.50">
        <route edges="r7 e1 r1 e7 e3 e4 r11 r2 e9 e4 e12 r6 r5 r8 e3 e4 e12 r6 r10 r9 e9 e10 r5 r8 r7"/>
    </vehicle>
    <vehicle id="36" depart="3.60">
        <route edges="e1 e9 r3 e8 e5 r5 r8 e8 e5 r5 r8 e3 e4 e12 r6 r5 r8 e3 e4 r4"/>
    </vehicle>
    <vehicle id="37" depart="3.70">
        <route edges="e11 e12 r6 r5 r8 e3 e10 r5 r8 e3 r9 e9 r3 e8 e5 r5 r8 e3"/>
    </vehicle>
    <vehicle id="38" depart="3.80">
        <route edges="e1 e2 e11 r4 r3 e8 e5 e6 r12 e12 r6 r10 r9 e9 e4 r4 e10 e6 r12 r11 r2 r1 e7 e3 r9"/>
    </vehicle>
    <vehicle id="39" depart="3.90">
        <route edges="r1 e7 e8 e5 r5 r8 r7 e1 e2 e11 r4 r9 e2 e11 r4 r9 e9 e4 r11 r2 e2 e11 r4 r3 e8"/>
    </vehicle>
    <vehicle id="40" depart="4.00">
        <route edges="r3 e8 e5 e6 r12 r11 r2 r1 e7 e8 e5 r10 e4 r4 r3 r7 e1"/>
    </vehicle>
    <vehicle id="41" depart="4.10">
        <route edges="r8 r7 e1 r1 e7 e3 r3 e3 e4 r11 r2 e9 e10 e6 r12 r4 e10 e6 r12 r4 r3 e8 e5"/>
    </vehicle>
    <vehicle id="42" depart="4.20">
        <route edges="e5 e6 r12 e12 r6 r10 r3 e8 e5 r10 r9 r1 e7 e8 e5 e6 r12 e12"/>
    </vehicle>
    <vehicle id="43" depart="4.30">
        <route edges="e8 e5 r5 r8 e3 e4 r11 r2 r1 e7 r7 e1 e2 e11 r11 r2 r1 e7 e8 e5 r10 r3 r7 e1 e9 e4"/>
    </vehicle>
    <vehicle id="44" depart="4.40">
        <route edges="e8 e5 r10 e10 e6 r12 r11 r2 e9 r3 e8 e5 r10 r3 e3 r9 e9 r3 r7 e1 e9 e10 r5"/>
    </vehicle>
    <vehicle id="45" depart="4.50">
        <route edges="e2 e11 r11 r2 r1 e7 e8 e5 e6 r12 r4 e10 e6 r12 r4 e10 r5 r8 e3 e4 r4 e4 r11 r2 r1 e7 e3"/>
    </vehicle>
    <vehicle id="46" depart="4.60">
        <route edges="e2 e11 r4 r3 r7 e1 r1 e7 e3 r9 e9 e4 e12 r6 r10 e10 r10 r9 r1 e7 e8 e5 e6 r12 r11 r2 e2"/>
    </vehicle>
    <vehicle id="47" depart="4.70">
        <route edges="r2 e9 r3 e3 e10 e6 r12 r4 r3 r7 e1 e2 e11 r4 r9 e2 e11 r4 r3 e8"/>
    </vehicle>
    <vehicle id="48" depart="4.80">
        <route edges="e2 e11 e12 r6 r5 r8 r7 e1 r1 e7 e3 e10 r10 r3 e3 e4 e12 r6 r5 r8 e8 e5 r5 r8 e3 e4 r11 r2"/>
    </vehicle>
    <vehicle id="49" depart="4.90">
        <route edges="r9 e9 e4 r11 r2 e9 e10 r5 r8 r7 e1 e2 e11 r11 r2 e9 r3 e3 r9 r1 e7 e8 e5 r5 r8 e8 e5 r10"/>
    </vehicle>
    <vehicle id="50" depart="5.00">
        <route edges="r7 e1 e9 r3 e3 r9 e9 e4 r4 r3 e3 e10 e6 r12 r4 r9 r1 e7 e8 e5 e6 r12"/>
    </vehicle>
    <vehicle id="51" depart="5.10">
        <route edges="e4 r4 e10 r10 e4 r4 r3 e8 e5 r10 r9 r1 e7 e3 e4 e12 r6 r5 r8 e3 e4 r11 r2"/>
    </vehicle>
    <vehicle id="52" depart="5.20">
        <route edges="r2 e9 e10 r10 r9 r1 e7 e8 e5 r10 r9 r1 e7 e3 r9 e2 e11 r4 r3 e8 e5 r10 r3 r7 e1 e2 e11 r11"/>
    </vehicle>
    <vehicle id="53" depart="5.30">
        <route edges="r2 e9 e4 e12 r6 e6 r12 r4 r9 r1 e7 r7 e1 e9 e10 e6 r12 r4 e4 e12 r6 r5 r8"/>
    </vehicle>
    <vehicle id="54" depart="5.40">
        <route edges="e8 e5 r10 r3 e8 e5 r10 e4 r11 r2 r1 e7 e3 r3 e8 e5 r10 r3 r7 e1 e9 e10 e6"/>
    </vehicle>
    <vehicle id="55" depart="5.50">
        <route edges="r2 r1 e7 e3 e4 e12 r6 r10 r9 e9 e4 e12 r6 e6 r12 r11 r2 r1 e7 r7 e1 r1 e7 e8 e5 r10"/>
    </vehicle>
    <vehicle id="56" depart="5.60">
        <route edges="e1 e9 e10 e6 r12 e12 r6 r10 r9 e9 e10 r10 r9 r1 e7 e3 r3 e8 e5 e6 r12 r4"/>
    </vehicle>
    <vehicle id="57" depart="5.70">
        <route edges="e7 e3 e4 r4 e10 r5 r8 e3 e4 r4 e10 r5 r8 r7 e1 r1 e7 e3 r9 e9 e10 e6"/>
    </vehicle>
    <vehicle id="58" depart="5.80">
        <route edges="r12 r4 e10 e6 r12 r4 e10 r5 r8 r7 e1 e2 e11 r4 r3 r7 e1 e2 e11 e12"/>
    </vehicle>
    <vehicle id="59" depart="5.90">
        <route edges="r2 e9 e10 r10 r3 e3 e4 r11 r2 e9 e4 r4 r9 e2 e11 r11 r2 e9 r3 e3 r9 e2 e11"/>
    </vehicle>
    <vehicle id="60" depart="6.00">
        <route edges="r5 r8 e3 r9 e2 e11 r4 r3 r7 e1 r1 e7 e8 e5 e6 r12 r11 r2 e9 e10 r5 r8 r7 e1 r1 e7 e3 r3"/>
    </vehicle>
    <vehicle id="61" depart="6.10">
        <route edges="e10 e6 r12 r11 r2 e9 e10 e6 r12 r11 r2 e2 e11 r4 e4 e12 r6 e6 r12 r11 r2 e2 e11 r4 r9"/>
    </vehicle>
    <vehicle id="62" depart="6.20">
        <route edges="r4 e10 e6 r12 r4 r3 e8 e5 e6 r12 r11 r2 r1 e7 e8 e5 e6 r12 e12 r6 r5 r8 r7 e1 e2 e11"/>
    </vehicle>
    <vehicle id="63" depart="6.30">
        <route edges="r9 e9 e10 e6 r12 r4 e10 r5 r8 e3 e4 r11 r2 r1 e7 e8 e5 r10 r3 e3 r9 e9 e4 r4 e10 r5"/>
    </vehicle>
    <vehicle id="64" depart="6.40">
        <route edges="r1 e7 e3 r9 e9 r3 e8 e5 r10 r3 e3 e4 e12 r6 r5 r8 r7 e1 e2 e11 r4 r3 r7"/>
    </vehicle>
    <vehicle id="65" depart="6.50">
        <route edges="e3 r9 e9 e4 r11 r2 r1 e7 r7 e1 e2 e11 e12 r6 r10 r9 e2 e11 r4 r3 e3 e10 r5"/>
    </vehicle>
    <vehicle id="66" depart="6.60">
        <route edges="e6 r12 r4 r3 r7 e1 e2 e11 r11 r2 e9 e4 r4 r3 r7 e1 e9 e10 r5 r8 r7 e1 e2 e11 r4 r3 e3 r9 e9"/>
    </vehicle>
    <vehicle id="67" depart="6.70">
        <route edges="r4 e4 r11 r2 e9 e10 e6 r12 r11 r2 e9 e10 r5 r8 r7 e1 e2 e11 r4 r3 e3 e4 r11 r2 r1 e7 e8 e5"/>
    </vehicle>
    <vehicle id="68" depart="6.80">
        <route edges="r10 r9 e9 r9 r1 e7 e8 e5 r10 r3 e8 e5 e6 r12 r11 r2 e9 e4"/>
    </vehicle>
    <vehicle id="69" depart="6.90">
        <route edges="e11 r11 r2 e2 e11 r11 r2 r1 e7 e3 e4 r4 r9 e2 e11 r4 r3 e3 r9 e9 r3"/>
    </vehicle>
    <vehicle id="70" depart="7.00">
        <route edges="r9 r1 e7 e3 e4 r11 r2 e2 e11 r11 r2 e2 e11 r4 r3 e3 r9 e2 e11 r4 r3 r7 e1 r1"/>
    </vehicle>
    <vehicle id="71" depart="7.10">
        <route edges="e4 r4 r9 e9 e10 r10 e4 r11 r2 e9 e4 e12 r6 r10 r9 e9 e4 e12 r6 r10"/>
    </vehicle>
    <vehicle id="72" depart="7.20">
        <route edges="e9 r3 e8 e5 r10 r9 e2 e11 r4 e10 r5 r8 e3 r9 e9 e10 r5 r8 r7 e1 r1 e7 e3 e10"/>
    </vehicle>
    <vehicle id="73" depart="7.30">
        <route edges="r12 r4 e10 e6 r12 e12 r6 r10 r3 e8 e5 r10 r9 e2 e11 r4 e4 r11"/>
    </vehicle>
    <vehicle id="74" depart="7.40">
        <route edges="r4 r3 e3 r9 r1 e7 e8 e5 e6 r12 e12 r6 r10 r9 r1 e7 e8 e5 e6 r12 r11"/>
    </vehicle>
    <vehicle id="75" depart="7.50">
        <route edges="r11 r2 e9 r3 e8 e5 r5 r8 r7 e1 e2 e11 r4 r3 e3 e10 e6 r12 e12 r6 r10 r9 e2 e11 r4 e10"/>
    </vehicle>
    <vehicle id="76" depart="7.60">
        <route edges="e1 r1 e7 e8 e5 e6 r12 r11 r2 e9 e4 r4 r3 e3 e4 r11 r2 r1 e7 e8 e5 e6 r12 r11 r2"/>
    </vehicle>
    <vehicle id="77" depart="7.70">
        <route edges="r8 e3 e4 r4 e10 e6 r12 r4 e10 r5 r8 e8 e5 r10 e10 e6 r12 r4 r3 r7"/>
    </vehicle>
    <vehicle id="78" depart="7.80">
        <route edges="r5 r8 e3 e10 e6 r12 e12 r6 r5 r8 e8 e5 r10 r3 e8 e5 r10 e4 r11 r2 e2 e11 r11 r2"/>
    </vehicle>
    <vehicle id="79" depart="7.90">
        <route edges="r2 e9 e10 r5 r8 r7 e1 r1 e7 e3 r9 e9 e10 r5 r8 r7 e1 r1 e7 e8 e5 r10 e4"/>
    </vehicle>
    <vehicle id="80" depart="8.00">
        <route edges="e11 r4 r9 e2 e11 e12 r6 r10 e10 r5 r8 e3 r9 e9 e4 r11 r2 e9 e4 r4 r3 r7 e1"/>
    </vehicle>
    <vehicle id="81" depart="8.10">
        <route edges="r4 r9 e9 e10 e6 r12 r4 r3 r7 e1 e2 e11 r11 r2 e9 e10 e6 r12 r11 r2 e9 r9 e2 e11"/>
    </vehicle>
    <vehicle id="82" depart="8.20">
        <route edges="e6 r12 r4 r3 e8 e5 e6 r12 r11 r2 e9 e4 e12 r6 r5 r8 e8 e5 e6 r12 r11 r2 e9 e4 r4 e10 r5 r8 e8 e5 r5"/>
    </vehicle>
    <vehicle id="83" depart="8.30">
        <route edges="r10 r3 e8 e5 r10 r9 r1 e7 e3 r9 r1 e7 e3 r9 e9 e10 e6 r12"/>
    </vehicle>
    <vehicle id="84" depart="8.40">
        <route edges="r10 r9 r1 e7 e3 r9 e2 e11 e12 r6 e6 r12 r4 e10 e6 r12 r4 r9 e2 e11 r4 e10 r10"/>
    </vehicle>
    <vehicle id="85" depart="8.50">
        <route edges="r8 e8 e5 e6 r12 r11 r2 e2 e11 r4 r9 e9 e4 r11 r2 r1 e7 e3 e4 e12 r6 r10"/>
    </vehicle>
    <vehicle id="86" depart="8.60">
        <route edges="r10 r9 e2 e11 r4 r9 r1 e7 r7 e1 e9 r9 e2 e11 e12 r6 r5 r8 e3 r9 e9 r3"/>
    </vehicle>
    <vehicle id="87" depart="8.70">
        <route edges="r1 e7 e3 e4 e12 r6 r10 r9 r1 e7 e3 e10 r10 r9 r1 e7 e8 e5 r5 r8 r7 e1 r1"/>
    </vehicle>
    <vehicle id="88" depart="8.80">
        <route edges="r7 e1 e2 e11 e12 r6 r10 e4 r4 r9 r1 e7 e8 e5 r5 r8 r7 e1 r1 e7 e8 e5 r5 r8 e3 e4"/>
    </vehicle>
    <vehicle id="89" depart="8.90">
        <route edges="e5 e6 r12 r11 r2 e9 r9 e9 e4 e12 r6 r10 r9 r1 e7 e8 e5 e6 r12 r4 e10 r10"/>
    </vehicle>
    <vehicle id="90" depart="9.00">
        <route edges="e8 e5 r10 r9 e2 e11 r11 r2 e9 e10 r10 r3 e3 e4 r4 e10 r10 r3"/>
    </vehicle>
    <vehicle id="91" depart="9.10">
        <route edges="r2 e9 e10 r5 r8 r7 e1 r1 e7 e8 e5 e6 r12 r4 e10 r5 r8 e3 r9 e9 r3 r7 e1 r1"/>
    </vehicle>
    <vehicle id="92" depart="9.20">
        <route edges="r11 r2 e9 e4 e12 r6 r5 r8 e8 e5 r10 r9 r1 e7 e8 e5 r10 r3 e3 r9 r1 e7 e8 e5 e6 r12"/>
    </vehicle>
    <vehicle id="93" depart="9.30">
        <route edges="e12 r6 r10 r9 e9 r9 e9 e10 e6 r12 r11 r2 e9 e10 e6 r12 e12 r6"/>
    </vehicle>
    <vehicle id="94" depart="9.40">
        <route edges="e7 e8 e5 r10 r3 e3 e4 r4 e4 e12 r6 r5 r8 r7 e1 e9 e10 e6 r12 r4 e10 r5 r8"/>
    </vehicle>
    <vehicle id="95" depart="9.50">
        <route edges="r9 e9 r3 e8 e5 r10 r9 e2 e11 e12 r6 e6 r12 e12 r6 r5 r8 e8 e5 e6 r12 r11 r2 r1 e7 r7"/>
    </vehicle>
    <vehicle id="96" depart="9.60">
        <route edges="e10 r5 r8 e8 e5 e6 r12 e12 r6 r10 r9 r1 e7 e8 e5 r10 e10 r5 r8 r7 e1 e2"/>
    </vehicle>
    <vehicle id="97" depart="9.70">
        <route edges="e10 e6 r12 e12 r6 e6 r12 r11 r2 r1 e7 e3 r3 r7 e1 e2 e11 e12 r6 r10 r9 e9 e4"/>
    </vehicle>
    <vehicle id="98" depart="9.80">
        <route edges="e1 e9 e10 r5 r8 r7 e1 e2 e11 r11 r2 e9 e4 e12 r6 r5 r8 e8 e5 e6 r12 r11 r2 e9 e10 e6 r12"/>
    </vehicle>
    <vehicle id="99" depart="9.90">
        <route edges="e8 e5 r10 e4 e12 r6 r10 r9 e2 e11 r11 r2 r1 e7 e3 r9 e9 r3 e3 e10 r10"/>
    </vehicle>
    <vehicle id="100" depart="10.00">
        <route edges="r9 r1 e7 e8 e5 r10 r9 e9 e10 e6 r12 r4 e4 r4 e10 r10 e4 r11 r2 e9 r3 e3 e10"/>
    </vehicle>
    <vehicle id="101" depart="10.10">
        <route edges="r11 r2 e9 r3 r7 e1 e9 e4 r4 e10 r5 r8 e3 e4 r11 r2 e9 e10 e6 r12 r11"/>
    </vehicle>
    <vehicle id="102" depart="10.20">
        <route edges="r2 e9 r3 e8 e5 e6 r12 e12 r6 e6 r12 r4 r3 r7 e1 e9 e10 e6 r12 r4 r3 e8 e5 r10 r3 e8"/>
    </vehicle>
    <vehicle id="103" depart="10.30">
        <route edges="r10 r3 e3 r9 e2 e11 r4 r3 e8 e5 r10 r3 e3 r9 e2 e11 e12 r6 r10 r9 r1 e7 e3 r9"/>
    </vehicle>
    <vehicle id="104" depart="10.40">
        <route edges="r1 e7 r7 e1 e9 e10 r5 r8 e3 e4 r4 e10 r5 r8 e3 r9 e9 e10 r5 r8 e3 r3 e8 e5 e6"/>
    </vehicle>
    <vehicle id="105" depart="10.50">
        <route edges="e11 r4 r9 e2 e11 e12 r6 r10 r9 e2 e11 e12 r6 r10 r3 e3 r9 e9 e10 r5"/>
    </vehicle>
    <vehicle id="106" depart="10.60">
        <route edges="e6 r12 r4 r3 r7 e1 r1 e7 e8 e5 e6 r12 r11 r2 e9 e4 r11 r2 e9 e10 r5"/>
    </vehicle>
    <vehicle id="107" depart="10.70">
        <route edges="r8 r7 e1 e2 e11 r4 r3 e3 r3 r7 e1 r1 e7 r7 e1 e9 e10 r10 r3 r7 e1 r1 e7 e3 e10"/>
    </vehicle>
    <vehicle id="108" depart="10.80">
        <route edges="r5 r8 r7 e1 r1 e7 e8 e5 r10 r9 r1 e7 e3 e4 e12 r6 r5 r8 e8 e5 r10 r9 e9 r9 e2 e11"/>
    </vehicle>
    <vehicle id="109" depart="10.90">
        <route edges="r7 e1 e2 e11 e12 r6 r5 r8 e8 e5 e6 r12 r11 r2 e9 r3 e8 e5 r5 r8 e8 e5 r10 r3 e3 e4 e12"/>
    </vehicle>
    <vehicle id="110" depart="11.00">
        <route edges="e7 e3 r9 e2 e11 r11 r2 e9 r9 r1 e7 e8 e5 r5 r8 r7 e1 e9 e10 e6 r12 r4 r3 e8 e5 r5 r8"/>
    </vehicle>
    <vehicle id="111" depart="11.10">
        <route edges="r6 r10 r9 e2 e11 r11 r2 e9 e10 r10 r9 e9 e10 e6 r12 r11 r2 r1 e7 e3 r9 e2 e11"/>
    </vehicle>
    <vehicle id="112" depart="11.20">
        <route edges="r6 r5 r8 e8 e5 e6 r12 r11 r2 r1 e7 r7 e1 e2 e11 r4 r3 e3 e4 e12"/>
    </vehicle>
    <vehicle id="113" depart="11.30">
        <route edges="r10 e10 e6 r12 r4 r9 e2 e11 r4 r3 e3 e4 e12 r6 r5 r8 e8 e5 e6 r12 e12 r6 r5 r8 r7"/>
    </vehicle>
    <vehicle id="114" depart="11.40">
        <route edges="e1 e2 e11 e12 r6 e6 r12 e12 r6 r10 e4 r11 r2 e2 e11 e12 r6 e6 r12 r4 r3 r7 e1"/>
    </vehicle>
    <vehicle id="115" depart="11.50">
        <route edges="r4 r3 e3 r3 e8 e5 r10 r9 e2 e11 r4 e10 r10 r3 e3 r9 r1 e7 e3 r3 e3 r9 e9"/>
    </vehicle>
    <vehicle id="116" depart="11.60">
        <route edges="r4 r9 r1 e7 e3 r9 e2 e11 r11 r2 r1 e7 e8 e5 r5 r8 e3 e10 e6 r12 r4 e4 e12 r6 r10 r9 r1"/>
    </vehicle>
    <vehicle id="117" depart="11.70">
        <route edges="e8 e5 r10 r9 e9 e10 r10 r9 e9 r9 r1 e7 e3 e4 r11 r2 e9 r3 r7 e1 e9 e10"/>
    </vehicle>
    <vehicle id="118" depart="11.80">
        <route edges="e10 e6 r12 r11 r2 e9 e10 r10 e4 r4 e10 e6 r12 r4 e10 r10 r3 e8 e5 r10 r9 r1"/>
    </vehicle>
    <vehicle id="119" depart="11.90">
        <route edges="e8 e5 e6 r12 r11 r2 e2 e11 r11 r2 e9 e4 e12 r6 e6 r12 r4 r3 e3"/>
    </vehicle>
    <vehicle id="120" depart="12.00">
        <route edges="e8 e5 r10 r3 e3 e10 e6 r12 r4 r3 e8 e5 r10 r9 r1 e7 e3 r9 e2 e11 r4 r3 e8 e5 e6 r12 r4 e10 e6"/>
    </vehicle>
    <vehicle id="121" depart="12.10">
        <route edges="e12 r6 r5 r8 e3 e10 r5 r8 r7 e1 e2 e11 r4 r3 e8 e5 r5 r8 e8 e5 r10"/>
    </vehicle>
    <vehicle id="122" depart="12.20">
        <route edges="r11 r2 e9 e10 r10 r3 e8 e5 r10 r9 e2 e11 e12 r6 e6 r12 r4 e4 e12 r6 r10 r3"/>
    </vehicle>
    <vehicle id="123" depart="12.30">
        <route edges="r9 e9 e4 r11 r2 e9 e10 e6 r12 r4 e10 r10 r3 e3 e10 e6 r12 r4 r3 e3 r9 e2 e11 e12 r6"/>
    </vehicle>
    <vehicle id="124" depart="12.40">
        <route edges="e6 r12 r4 e10 r10 e10 r5 r8 e3 e4 e12 r6 r10 r9 e9 e10 r5 r8 e3 e4 r11 r2 e9 e10 e6 r12"/>
    </vehicle>
    <vehicle id="125" depart="12.50">
        <route edges="e1 e9 e10 r5 r8 e8 e5 r5 r8 e3 e4 r11 r2 e2 e11 r11 r2 r1 e7 e8 e5 e6 r12 r4 r3 r7 e1"/>
    </vehicle>
    <vehicle id="126" depart="12.60">
        <route edges="r6 r10 r9 r1 e7 e3 e4 e12 r6 e6 r12 r4 r3 r7 e1 e9 r3 e3 r3 e8"/>
    </vehicle>
    <vehicle id="127" depart="12.70">
        <route edges="e6 r12 r4 r3 e3 e4 r4 e10 r10 r9 e2 e11 r4 e10 e6 r12 e12 r6 e6 r12 r11"/>
    </vehicle>
    <vehicle id="128" depart="12.80">
        <route edges="r2 e9 e4 r4 e10 e6 r12 r11 r2 e9 r3 e8 e5 r10 e4 r4 r9 e2 e11 r4 r3 e8"/>
    </vehicle>
    <vehicle id="129" depart="12.90">
        <route edges="e4 r11 r2 e9 e4 r11 r2 e9 e10 r10 r9 r1 e7 e3 e4 r11 r2 r1 e7 r7 e1 r1 e7 e8 e5"/>
    </vehicle>
    <vehicle id="130" depart="13.00">
        <route edges="e3 e4 e12 r6 r10 e4 r4 r3 e8 e5 r10 r3 r7 e1 e9 r3 e3 r9 e2 e11 r11 r2 r1 e7 e3 e4 r11 r2"/>
    </vehicle>
    <vehicle id="131" depart="13.10">
        <route edges="r1 e7 e3 e4 e12 r6 r5 r8 e3 e10 e6 r12 e12 r6 r10 e10 r5 r8 r7 e1 e9 e10 r5 r8 e3 e4 e12 r6"/>
    </vehicle>
    <vehicle id="132" depart="13.20">
        <route edges="r10 r3 e8 e5 r10 r9 e2 e11 r4 r3 r7 e1 r1 e7 e8 e5 r5 r8 e3 e4 r11"/>
    </vehicle>
    <vehicle id="133" depart="13.30">
        <route edges="r5 r8 r7 e1 e2 e11 e12 r6 r5 r8 e3 e4 r11 r2 r1 e7 e8 e5"/>
    </vehicle>
    <vehicle id="134" depart="13.40">
        <route edges="e6 r12 r4 r3 e8 e5 r10 r9 e2 e11 r11 r2 r1 e7 e3 r9 e2 e11 r11 r2 r1 e7 r7 e1 e9 e10 e6 r12 r4 r3"/>
    </vehicle>
    <vehicle id="135" depart="13.50">
        <route edges="r5 r8 e3 e4 e12 r6 r10 r9 e2 e11 r11 r2 e9 e4 r4 e10 e6 r12 r11 r2 e2"/>
    </vehicle>
    <vehicle id="136" depart="13.60">
        <route edges="r4 r9 e9 e4 r4 r3 e8 e5 r5 r8 e8 e5 r10 e10 e6 r12 r11"/>
    </vehicle>
    <vehicle id="137" depart="13.70">
        <route edges="r6 e6 r12 e12 r6 r10 e10 r10 r3 e8 e5 r10 e4 r4 e10 r10 r9 r1"/>
    </vehicle>
    <vehicle id="138" depart="13.80">
        <route edges="e5 r10 r3 e8 e5 r10 e10 r5 r8 e3 e10 e6 r12 e12 r6 e6 r12 r11 r2 r1"/>
    </vehicle>
    <vehicle id="139" depart="13.90">
        <route edges="e9 e10 r10 e10 r5 r8 r7 e1 r1 e7 e8 e5 r5 r8 e8 e5 e6 r12 r4 r3 e8 e5 r10 r9 e9"/>
    </vehicle>
    <vehicle id="140" depart="14.00">
        <route edges="e12 r6 r10 e10 r10 r9 e2 e11 r4 r3 r7 e1 e9 e10 e6 r12 r4 r3 e3 r9 r1 e7 e3 r9 e2 e11 r4 r3 e3"/>
    </vehicle>
    <vehicle id="141" depart="14.10">
        <route edges="e8 e5 r10 r9 r1 e7 e3 e4 e12 r6 e6 r12 r4 e4 r11 r2 r1 e7 e8 e5 e6 r12 r11"/>
    </vehicle>
    <vehicle id="142" depart="14.20">
        <route edges="r4 e10 e6 r12 r4 e10 r10 r9 e2 e11 r11 r2 e9 e4 r4 r3 e8 e5 e6 r12 r4 r3 r7"/>
    </vehicle>
    <vehicle id="143" depart="14.30">
        <route edges="r6 e6 r12 r4 e10 r10 e4 e12 r6 e6 r12 r4 r9 e9 e4 r11 r2 r1 e7 e3 e4 r11"/>
    </vehicle>
    <vehicle id="144" depart="14.40">
        <route edges="r8 e8 e5 r10 r9 r1 e7 e3 e4 r4 e10 r5 r8 e3 e4 r11 r2 e9 e10 r5 r8 e3 r3 e3 e4 r11 r2"/>
    </vehicle>
    <vehicle id="145" depart="14.50">
        <route edges="r1 e7 e8 e5 e6 r12 r4 r3 e8 e5 e6 r12 r11 r2 e2 e11 r4 r3 e3 e10 r5 r8 e3 r9 e9"/>
    </vehicle>
    <vehicle id="146" depart="14.60">
        <route edges="e3 e4 e12 r6 r10 e10 e6 r12 e12 r6 r10 r9 e2 e11 r4 e4 e12 r6 r5 r8 r7 e1"/>
    </vehicle>
    <vehicle id="147" depart="14.70">
        <route edges="e6 r12 r4 e4 e12 r6 r10 r9 r1 e7 e3 e4 e12 r6 r5 r8 e3 e4 r4 e10 r5 r8 e3 e4 e12"/>
    </vehicle>
    <vehicle id="148" depart="14.80">
        <route edges="e8 e5 r10 r9 r1 e7 e3 e4 r11 r2 r1 e7 e3 r3 e8 e5 r10 e4 r4 r3 e8 e5 r10 r9 r1"/>
    </vehicle>
    <vehicle id="149" depart="14.90">
        <route edges="e5 r5 r8 e3 r9 e9 e4 e12 r6 e6 r12 r4 e10 r5 r8 e3 r9 e9 e4"/>
    </vehicle>
    <vehicle id="150" depart="15.00">
        <route edges="e7 e3 r9 r1 e7 e3 r9 e9 e10 r5 r8 e3 e4 e12 r6 r10 e4 r4 e10 e6 r12 e12 r6"/>
    </vehicle>
    <vehicle id="151" depart="15.10">
        <route edges="r10 r9 e2 e11 e12 r6 r10 e4 r4 e4 r4 r3 r7 e1 e2 e11 e12"/>
    </vehicle>
    <vehicle id="152" depart="15.20">
        <route edges="e8 e5 r5 r8 e3 r3 e8 e5 e6 r12 r4 r3 r7 e1 e9 e10 r10 r9 r1 e7 e3"/>
    </vehicle>
    <vehicle id="153" depart="15.30">
        <route edges="r9 e9 e10 e6 r12 r4 r3 r7 e1 e9 e10 r5 r8 e3 e4 e12 r6 e6 r12 r4 e4 e12 r6 r10 e4"/>
    </vehicle>
    <vehicle id="154" depart="15.40">
        <route edges="r5 r8 e3 e4 r11 r2 e9 e4 e12 r6 e6 r12 r11 r2 r1 e7 e8 e5 r10 r3 r7 e1 e9 e10 r10 e4 e12 r6"/>
    </vehicle>
    <vehicle id="155" depart="15.50">
        <route edges="r10 r3 e3 r9 r1 e7 e3 r9 e2 e11 r4 e4 r4 r3 e8 e5 r10 e10 r10 r3 e8 e5 r5"/>
    </vehicle>
    <vehicle id="156" depart="15.60">
        <route edges="e8 e5 r10 r9 e2 e11 r4 r3 r7 e1 e2 e11 r11 r2 r1 e7 r7 e1 r1 e7 e3 e4 e12 r6 r5 r8 e8"/>
    </vehicle>
    <vehicle id="157" depart="15.70">
        <route edges="r11 r2 r1 e7 e3 r9 r1 e7 e8 e5 e6 r12 r11 r2 e2 e11 r4 r9 e9 e10 r10 r9 r1"/>
    </vehicle>
    <vehicle id="158" depart="15.80">
        <route edges="r9 e9 e10 r10 r9 r1 e7 e3 r9 e9 e10 e6 r12 r4 r9 e9 e4 r4 r3 r7 e1 e2 e11 r4"/>
    </vehicle>
    <vehicle id="159" depart="15.90">
        <route edges="e6 r12 r4 r3 e8 e5 e6 r12 r4 r3 e8 e5 r10 e10 r10 e10 r5"/>
    </vehicle>
    <vehicle id="160" depart="16.00">
        <route edges="e2 e11 r4 r9 e9 e4 r11 r2 e9 e10 e6 r12 r4 e10 r5 r8 e3 e10 e6 r12 r4 r3 e8"/>
    </vehicle>
    <vehicle id="161" depart="16.10">
        <route edges="e5 r10 e10 r10 r9 e2 e11 r4 e10 r5 r8 r7 e1 r1 e7 e3 r9 e9 e10 r10 e4"/>
    </vehicle>
    <vehicle id="162" depart="16.20">
        <route edges="r4 r9 e2 e11 e12 r6 e6 r12 r4 e4 e12 r6 r5 r8 e8 e5 r10 r9 e2 e11 e12 r6 e6 r12 r4 r3 r7"/>
    </vehicle>
    <vehicle id="163" depart="16.30">
        <route edges="r3 r7 e1 r1 e7 e3 r9 e9 e10 r5 r8 r7 e1 r1 e7 e8 e5 r5"/>
    </vehicle>
    <vehicle id="164" depart="16.40">
        <route edges="r3 e3 e10 e6 r12 r11 r2 e9 e10 r5 r8 e8 e5 r10 r3 e8 e5 r10 e10 e6 r12 r4 r3 e8 e5"/>
    </vehicle>
    <vehicle id="165" depart="16.50">
        <route edges="r11 r2 r1 e7 e8 e5 e6 r12 r11 r2 e9 e10 e6 r12 r4 e10 e6 r12 e12 r6 e6 r12 r4 r9 e9 e4"/>
    </vehicle>
    <vehicle id="166" depart="16.60">
        <route edges="r9 e9 e10 r5 r8 e3 e10 e6 r12 r4 e10 e6 r12 r4 e10 r5 r8 e3 e4 r11 r2 e9 e10 r5 r8 e3 e4 e12"/>
    </vehicle>
    <vehicle id="167" depart="16.70">
        <route edges="r11 r2 e9 e4 r4 r3 r7 e1 e9 e10 e6 r12 r4 e10 e6 r12 r11 r2 r1 e7 e8 e5 r10 e4 r11"/>
    </vehicle>
    <vehicle id="168" depart="16.80">
        <route edges="r2 e9 e10 r5 r8 e8 e5 e6 r12 r4 e10 r10 r9 r1 e7 e8 e5 e6 r12 r4 r3 e3"/>
    </vehicle>
    <vehicle id="169" depart="16.90">
        <route edges="e11 r4 r3 e3 r9 e9 r9 r1 e7 e8 e5 r10 e4 r4 r3 e8 e5 r10 r9"/>
    </vehicle>
    <vehicle id="170" depart="17.00">
        <route edges="e4 r4 r3 r7 e1 e9 r9 e2 e11 e12 r6 r5 r8 e8 e5 r10 r3 r7 e1 r1 e7 e8 e5 r10 r9 e2 e11"/>
    </vehicle>
    <vehicle id="171" depart="17.10">
        <route edges="r2 e9 e4 e12 r6 r5 r8 e8 e5 e6 r12 r4 e10 r10 r3 r7 e1 e2 e11 e12 r6 r10 r3"/>
    </vehicle>
    <vehicle id="172" depart="17.20">
        <route edges="r8 e8 e5 e6 r12 r4 e10 r5 r8 r7 e1 r1 e7 e3 r9 e2 e11 r11 r2 e2 e11 e12 r6 e6 r12 r4 r3 r7 e1"/>
    </vehicle>
    <vehicle id="173" depart="17.30">
        <route edges="r10 e10 e6 r12 r4 e10 r5 r8 e8 e5 r10 e4 r11 r2 e2 e11 r4 r3 e8 e5 r10 r9 e9 r3"/>
    </vehicle>
    <vehicle id="174" depart="17.40">
        <route edges="r1 e7 e3 e4 r4 e10 r5 r8 e3 e10 r10 r9 e9 e10 e6 r12 r4 r3 e8 e5 e6 r12 r11 r2 e9 e10 e6"/>
    </vehicle>
    <vehicle id="175" depart="17.50">
        <route edges="r7 e1 e2 e11 r4 e10 e6 r12 r11 r2 e2 e11 r4 r9 r1 e7 e8 e5 r10 r3 r7 e1 e9 e10 r10 r9 e2 e11"/>
    </vehicle>
    <vehicle id="176" depart="17.60">
        <route edges="e12 r6 r5 r8 e8 e5 r10 r3 e8 e5 e6 r12 r4 e10 r5 r8 r7 e1 e2 e11 e12 r6 r10 e4"/>
    </vehicle>
    <vehicle id="177" depart="17.70">
        <route edges="r12 r4 e10 r10 e4 e12 r6 r5 r8 e8 e5 r10 r9 r1 e7 e3 r9 e2 e11 e12 r6 r5 r8 e3 e4 e12"/>
    </vehicle>
    <vehicle id="178" depart="17.80">
        <route edges="r12 r4 r3 e3 e4 r11 r2 e9 e4 e12 r6 r10 e10 r5 r8 r7 e1 e9 e10 e6 r12"/>
    </vehicle>
    <vehicle id="179" depart="17.90">
        <route edges="r10 e10 e6 r12 r4 r9 r1 e7 e8 e5 e6 r12 r11 r2 e9 e10 e6 r12 r4 e4 r4 e10 r5 r8"/>
    </vehicle>
    <vehicle id="180" depart="18.00">
        <route edges="e9 e10 r5 r8 e3 e4 r11 r2 r1 e7 e8 e5 r10 e10 r10 r3 e8 e5 r10 r9 e9 r9 e2"/>
    </vehicle>
    <vehicle id="181" depart="18.10">
        <route edges="r11 r2 r1 e7 e8 e5 r10 r3 e3 e4 e12 r6 r10 r9 e2 e11 e12 r6 e6 r12 r4 e10 r10"/>
    </vehicle>
    <vehicle id="182" depart="18.20">
        <route edges="e5 r10 r9 e9 e4 r4 r3 e3 r9 e2 e11 r4 e4 r11 r2 r1 e7 e3 e4 r11 r2 r1 e7 e3"/>
    </vehicle>
    <vehicle id="183" depart="18.30">
        <route edges="r6 e6 r12 e12 r6 r5 r8 e8 e5 r10 r3 e8 e5 e6 r12 r4 r9 e9 r9 r1 e7 e3 r9 e9"/>
    </vehicle>
    <vehicle id="184" depart="18.40">
        <route edges="e5 r10 r3 r7 e1 e9 e10 r5 r8 r7 e1 r1 e7 e3 r9 r1 e7 e3 e10 e6 r12 r4 e10 r10 r9 e9"/>
    </vehicle>
    <vehicle id="185" depart="18.50">
        <route edges="r7 e1 e9 e10 e6 r12 r11 r2 e9 r9 r1 e7 e3 e4 e12 r6 r5 r8 e8 e5 r10 r3 r7 e1 e9 r3 e3 e4 r4"/>
    </vehicle>
    <vehicle id="186" depart="18.60">
        <route edges="e6 r12 r11 r2 r1 e7 e8 e5 r10 r9 e2 e11 r4 e10 r10 e10 r10 r9 r1 e7 e3 e4 r4 e4"/>
    </vehicle>
    <vehicle id="187" depart="18.70">
        <route edges="r9 e9 e4 r11 r2 e2 e11 r4 r9 r1 e7 e8 e5 r5 r8 e8 e5 e6 r12 r4 e10 r5 r8 e3 e4 r4"/>
    </vehicle>
    <vehicle id="188" depart="18.80">
        <route edges="e2 e11 r11 r2 r1 e7 e3 e10 e6 r12 e12 r6 r5 r8 e8 e5 r10 r9 e9 r3 e8 e5 e6 r12 r11"/>
    </vehicle>
    <vehicle id="189" depart="18.90">
        <route edges="r1 e7 e8 e5 e6 r12 r11 r2 e9 e4 e12 r6 r10 r9 e9 r3 e8 e5 e6 r12 r4 e10 r5"/>
    </vehicle>
    <vehicle id="190" depart="19.00">
        <route edges="r1 e7 e3 r3 e8 e5 r5 r8 e8 e5 e6 r12 r11 r2 e9 r9 e9 e4 r11 r2 e9 e10 r5"/>
    </vehicle>